
OS:Version,
  {e3e0ea24-cb09-4fa2-b775-03d7c0009d8f}, !- Handle
  1.12.0;                                 !- Version Identifier

OS:Site,
  {8927501b-94ac-4ebb-ba6f-0700120c6057}, !- Handle
  D3_peninsula,                           !- Name
  40.68,                                  !- Latitude {deg}
  -4.13,                                  !- Longitude {deg}
  1,                                      !- Time Zone {hr}
  667,                                    !- Elevation {m}
  City;                                   !- Terrain

OS:SimulationControl,
  {1f10c4ef-b224-4092-92e5-ed6e81b0cf79}, !- Handle
  No,                                     !- Do Zone Sizing Calculation
  No,                                     !- Do System Sizing Calculation
  No,                                     !- Do Plant Sizing Calculation
  No,                                     !- Run Simulation for Sizing Periods
  Yes,                                    !- Run Simulation for Weather File Run Periods
  0.04,                                   !- Loads Convergence Tolerance Value
  0.4,                                    !- Temperature Convergence Tolerance Value {deltaC}
  FullExterior,                           !- Solar Distribution
  25;                                     !- Maximum Number of Warmup Days

OS:Building,
  {1ea2e9a4-0714-4cd3-b7cb-09a16a2a969d}, !- Handle
  ResBloque01_EN0V0,                      !- Name
  ,                                       !- Building Sector Type
  0,                                      !- North Axis {deg}
  ,                                       !- Nominal Floor to Floor Height {m}
  {56ef3489-666b-4906-9f70-990d34e20ff6}, !- Space Type Name
  {b1ca279f-45e2-4e79-b9a7-e7e955b37385}, !- Default Construction Set Name
  {e2c357c7-934a-4ccb-b49d-d6530800fea6}, !- Default Schedule Set Name
  4,                                      !- Standards Number of Stories
  4,                                      !- Standards Number of Above Ground Stories
  ,                                       !- Standards Building Type
  16,                                     !- Standards Number of Living Units
  ,                                       !- Relocatable
  3.2;                                    !- Nominal Floor to Ceiling Height {m}

OS:ShadowCalculation,
  {61ce9f15-42d1-4aa7-a9df-7e75d3cda8fa}, !- Handle
  7,                                      !- Calculation Frequency
  15000;                                  !- Maximum Figures in Shadow Overlap Calculations

OS:HeatBalanceAlgorithm,
  {5afacf34-940b-41b7-b6b7-7554d6420a55}, !- Handle
  ConductionTransferFunction,             !- Algorithm
  200;                                    !- Surface Temperature Upper Limit {C}

OS:ConvergenceLimits,
  {3c619ede-4dda-4a6f-8337-218d56e355f7}, !- Handle
  1;                                      !- Minimum System Timestep {minutes}

OS:Timestep,
  {9cb96fcf-123e-495d-8fa6-b7286ea708b1}, !- Handle
  1;                                      !- Number of Timesteps per Hour

OS:RunPeriod,
  {ea3e53a0-9c01-4abb-b7de-f33c0f5ea9cb}, !- Handle
  anual,                                  !- Name
  1,                                      !- Begin Month
  1,                                      !- Begin Day of Month
  12,                                     !- End Month
  31,                                     !- End Day of Month
  No,                                     !- Use Weather File Holidays and Special Days
  No,                                     !- Use Weather File Daylight Saving Period
  Yes,                                    !- Apply Weekend Holiday Rule
  Yes,                                    !- Use Weather File Rain Indicators
  Yes,                                    !- Use Weather File Snow Indicators
  1;                                      !- Number of Times Runperiod to be Repeated

OS:YearDescription,
  {650fc405-488f-4269-b173-ebb71bc29c61}, !- Handle
  2007,                                   !- Calendar Year
  ,                                       !- Day of Week for Start Day
  ;                                       !- Is Leap Year

OS:Facility,
  {d7240b13-4ebf-4472-9046-b2769a5f59af}; !- Handle

OS:Rendering:Color,
  {0fe86429-7f32-4e1e-a16f-07050b8b1a92}, !- Handle
  Rendering Color 1,                      !- Name
  199,                                    !- Rendering Red Value
  21,                                     !- Rendering Green Value
  133,                                    !- Rendering Blue Value
  ;                                       !- Rendering Alpha Value

OS:Rendering:Color,
  {2511a633-e707-4acf-91be-e92d8a38b5e7}, !- Handle
  Rendering Color 2,                      !- Name
  47,                                     !- Rendering Red Value
  79,                                     !- Rendering Green Value
  79;                                     !- Rendering Blue Value

OS:Rendering:Color,
  {9cd753ea-2c3c-4741-991b-ba294380e97e}, !- Handle
  Rendering Color 3,                      !- Name
  138,                                    !- Rendering Red Value
  43,                                     !- Rendering Green Value
  226;                                    !- Rendering Blue Value

OS:Rendering:Color,
  {740d450e-0fb5-4baa-a1e4-0ca0e22feddf}, !- Handle
  Rendering Color 4,                      !- Name
  0,                                      !- Rendering Red Value
  0,                                      !- Rendering Green Value
  205;                                    !- Rendering Blue Value

OS:Rendering:Color,
  {7b1e9e4e-786a-47d3-91e8-d09ce41d5591}, !- Handle
  Rendering Color 5,                      !- Name
  245,                                    !- Rendering Red Value
  245,                                    !- Rendering Green Value
  220;                                    !- Rendering Blue Value

OS:Rendering:Color,
  {e3f489d1-e19f-4972-8b96-ec2137ba0a18}, !- Handle
  Rendering Color 6,                      !- Name
  220,                                    !- Rendering Red Value
  220,                                    !- Rendering Green Value
  220;                                    !- Rendering Blue Value

OS:Rendering:Color,
  {45f3d929-7f27-474d-b8e7-a4b7eaeb7763}, !- Handle
  Rendering Color 7,                      !- Name
  0,                                      !- Rendering Red Value
  0,                                      !- Rendering Green Value
  205;                                    !- Rendering Blue Value

OS:Rendering:Color,
  {9b20f4c6-8dc3-4f04-8783-a8c37faaf4db}, !- Handle
  Rendering Color 8,                      !- Name
  210,                                    !- Rendering Red Value
  180,                                    !- Rendering Green Value
  140;                                    !- Rendering Blue Value

OS:Rendering:Color,
  {129da498-80aa-4960-ae3d-7a46b8d5eb15}, !- Handle
  Rendering Color 9,                      !- Name
  173,                                    !- Rendering Red Value
  216,                                    !- Rendering Green Value
  230;                                    !- Rendering Blue Value

OS:Rendering:Color,
  {9ce0a3ba-3520-4d3a-83a0-3a91cb70d0a0}, !- Handle
  Rendering Color 10,                     !- Name
  0,                                      !- Rendering Red Value
  206,                                    !- Rendering Green Value
  209;                                    !- Rendering Blue Value

OS:Rendering:Color,
  {cfed8588-4ccc-42be-9c96-e18ba1156772}, !- Handle
  Rendering Color 11,                     !- Name
  34,                                     !- Rendering Red Value
  139,                                    !- Rendering Green Value
  34;                                     !- Rendering Blue Value

OS:ClimateZones,
  {1b585337-7a27-4bfd-8a07-f8babcc87798}, !- Handle
  ,                                       !- Active Institution
  ,                                       !- Active Year
  ASHRAE,                                 !- Climate Zone Institution Name 1
  ANSI/ASHRAE Standard 169,               !- Climate Zone Document Name 1
  2006,                                   !- Climate Zone Document Year 1
  ,                                       !- Climate Zone Value 1
  CEC,                                    !- Climate Zone Institution Name 2
  California Climate Zone Descriptions,   !- Climate Zone Document Name 2
  1995,                                   !- Climate Zone Document Year 2
  ;                                       !- Climate Zone Value 2

OS:LifeCycleCost:Parameters,
  {cdf15cd1-dc5d-41e1-8d02-e6db77c47498}, !- Handle
  FEMP,                                   !- Analysis Type
  ,                                       !- Discounting Convention
  ,                                       !- Inflation Approach
  ,                                       !- Real Discount Rate
  ,                                       !- Nominal Discount Rate
  ,                                       !- Inflation
  ,                                       !- Base Date Month
  ,                                       !- Base Date Year
  ,                                       !- Service Date Month
  ,                                       !- Service Date Year
  ,                                       !- Length of Study Period in Years
  ,                                       !- Tax Rate
  ,                                       !- Depreciation Method
  Yes;                                    !- Use NIST Fuel Escalation Rates

OS:ScheduleTypeLimits,
  {9357af02-3b08-4e12-8be9-2e56fbbce515}, !- Handle
  Dimensionless,                          !- Name
  ,                                       !- Lower Limit Value
  ,                                       !- Upper Limit Value
  Continuous;                             !- Numeric Type

OS:ScheduleTypeLimits,
  {3f34b003-3937-4fda-a10b-cd38d9ab83ff}, !- Handle
  Fractional,                             !- Name
  0,                                      !- Lower Limit Value
  1,                                      !- Upper Limit Value
  Continuous;                             !- Numeric Type

OS:ScheduleTypeLimits,
  {4268bd92-36a9-4993-b7a5-cf7f788eb879}, !- Handle
  ActivityLevel,                          !- Name
  0,                                      !- Lower Limit Value
  ,                                       !- Upper Limit Value
  Continuous,                             !- Numeric Type
  ActivityLevel;                          !- Unit Type

OS:ScheduleTypeLimits,
  {2e230eb6-5a39-47b6-8601-2a9a9ec5ddaa}, !- Handle
  OnOff,                                  !- Name
  0,                                      !- Lower Limit Value
  1,                                      !- Upper Limit Value
  Discrete,                               !- Numeric Type
  Availability;                           !- Unit Type

OS:ScheduleTypeLimits,
  {f9c77072-ef86-420b-a013-f462c7e152b5}, !- Handle
  Capacity,                               !- Name
  0,                                      !- Lower Limit Value
  ,                                       !- Upper Limit Value
  Continuous,                             !- Numeric Type
  Capacity;                               !- Unit Type

OS:ScheduleTypeLimits,
  {7348a0ca-01bd-4035-8a4a-35073c3ef5ca}, !- Handle
  ClothingInsulation,                     !- Name
  0,                                      !- Lower Limit Value
  ,                                       !- Upper Limit Value
  Continuous,                             !- Numeric Type
  ClothingInsulation;                     !- Unit Type

OS:ScheduleTypeLimits,
  {739f7f3f-67f4-474a-989e-0a5c6dd2009f}, !- Handle
  ControlMode,                            !- Name
  0,                                      !- Lower Limit Value
  1,                                      !- Upper Limit Value
  Discrete,                               !- Numeric Type
  ControlMode;                            !- Unit Type

OS:ScheduleTypeLimits,
  {2d3a3001-8a97-4645-8323-4775f7af0fd6}, !- Handle
  DeltaTemperature,                       !- Name
  ,                                       !- Lower Limit Value
  ,                                       !- Upper Limit Value
  Continuous,                             !- Numeric Type
  DeltaTemperature;                       !- Unit Type

OS:ScheduleTypeLimits,
  {0b90d899-97c8-47ed-aaf3-45804d70735f}, !- Handle
  Dimensionless 1,                        !- Name
  0,                                      !- Lower Limit Value
  1,                                      !- Upper Limit Value
  Continuous,                             !- Numeric Type
  Dimensionless;                          !- Unit Type

OS:ScheduleTypeLimits,
  {62f0dfa4-4f27-4d9e-8936-0663f56ae945}, !- Handle
  LinearPowerDensity,                     !- Name
  0,                                      !- Lower Limit Value
  ,                                       !- Upper Limit Value
  Continuous,                             !- Numeric Type
  LinearPowerDensity;                     !- Unit Type

OS:ScheduleTypeLimits,
  {c2b540f8-9e8a-4b53-99e4-8b69c78ce6ac}, !- Handle
  MassFlowRate,                           !- Name
  ,                                       !- Lower Limit Value
  ,                                       !- Upper Limit Value
  Continuous,                             !- Numeric Type
  MassFlowRate;                           !- Unit Type

OS:ScheduleTypeLimits,
  {df6d3324-5bac-43cc-96e6-d93ecc371610}, !- Handle
  Percent,                                !- Name
  0,                                      !- Lower Limit Value
  100,                                    !- Upper Limit Value
  Continuous,                             !- Numeric Type
  Percent;                                !- Unit Type

OS:ScheduleTypeLimits,
  {9cdd3249-b44b-421c-afd6-1c6df198a16e}, !- Handle
  Pressure,                               !- Name
  ,                                       !- Lower Limit Value
  ,                                       !- Upper Limit Value
  Continuous,                             !- Numeric Type
  Pressure;                               !- Unit Type

OS:ScheduleTypeLimits,
  {3e8cde08-facf-4162-8482-d1de80427772}, !- Handle
  RotationsPerMinute,                     !- Name
  ,                                       !- Lower Limit Value
  ,                                       !- Upper Limit Value
  Continuous,                             !- Numeric Type
  RotationsPerMinute;                     !- Unit Type

OS:ScheduleTypeLimits,
  {ae0a9df5-cb98-4c78-bce5-3089e79621ec}, !- Handle
  Temperature,                            !- Name
  ,                                       !- Lower Limit Value
  ,                                       !- Upper Limit Value
  Continuous,                             !- Numeric Type
  Temperature;                            !- Unit Type

OS:ScheduleTypeLimits,
  {aba4a27e-1e72-42ec-8e81-9209424c8a2b}, !- Handle
  Velocity,                               !- Name
  0,                                      !- Lower Limit Value
  ,                                       !- Upper Limit Value
  Continuous,                             !- Numeric Type
  Velocity;                               !- Unit Type

OS:ScheduleTypeLimits,
  {8aa67699-ba6c-4f1a-89aa-0a13b8cbeb97}, !- Handle
  VolumetricFlowRate,                     !- Name
  0,                                      !- Lower Limit Value
  ,                                       !- Upper Limit Value
  Continuous,                             !- Numeric Type
  VolumetricFlowRate;                     !- Unit Type

OS:People:Definition,
  {0155ca7e-f770-42bf-9240-178c728dcb7a}, !- Handle
  CTER24B_QOCUB,                          !- Name
  Area/Person,                            !- Number of People Calculation Method
  ,                                       !- Number of People {people}
  ,                                       !- People per Space Floor Area {person/m2}
  33,                                     !- Space Floor Area per Person {m2/person}
  0.3,                                    !- Fraction Radiant
  0.61;                                   !- Sensible Heat Fraction

OS:ElectricEquipment:Definition,
  {d74cfa3d-3cc5-4052-a9bf-e2d61fd08fdc}, !- Handle
  CTER24B_QEQUB,                          !- Name
  Watts/Area,                             !- Design Level Calculation Method
  ,                                       !- Design Level {W}
  2.2,                                    !- Watts per Space Floor Area {W/m2}
  ,                                       !- Watts per Person {W/person}
  0,                                      !- Fraction Latent
  0.7,                                    !- Fraction Radiant
  0;                                      !- Fraction Lost

OS:Rendering:Color,
  {d20adb95-89cf-4204-b643-e3eb8fc0a61f}, !- Handle
  Rendering Color 12,                     !- Name
  50,                                     !- Rendering Red Value
  205,                                    !- Rendering Green Value
  50;                                     !- Rendering Blue Value

OS:DesignSpecification:OutdoorAir,
  {f010e28b-dae0-4c31-8bca-5f6d659cc717}, !- Handle
  CTE_Res_Ventilacion,                    !- Name
  Sum,                                    !- Outdoor Air Method
  0,                                      !- Outdoor Air Flow per Person {m3/s-person}
  ,                                       !- Outdoor Air Flow per Floor Area {m3/s-m2}
  ,                                       !- Outdoor Air Flow Rate {m3/s}
  4,                                      !- Outdoor Air Flow Air Changes per Hour {1/hr}
  ;                                       !- Outdoor Air Flow Rate Fraction Schedule Name

OS:Rendering:Color,
  {a938ee72-4daf-41a9-9c1e-64b045ff9fbf}, !- Handle
  Rendering Color 13,                     !- Name
  240,                                    !- Rendering Red Value
  248,                                    !- Rendering Green Value
  255;                                    !- Rendering Blue Value

OS:Rendering:Color,
  {9b134f50-71f4-47a4-8283-cf99376c5a97}, !- Handle
  Rendering Color 14,                     !- Name
  250,                                    !- Rendering Red Value
  250,                                    !- Rendering Green Value
  210;                                    !- Rendering Blue Value

OS:Rendering:Color,
  {a1a65912-2461-4449-93ea-a227280d3a5b}, !- Handle
  Rendering Color 15,                     !- Name
  0,                                      !- Rendering Red Value
  206,                                    !- Rendering Green Value
  209;                                    !- Rendering Blue Value

OS:Schedule:Day,
  {c928257d-e6a0-4f8a-805f-efffe54a070d}, !- Handle
  Schedule Day 28,                        !- Name
  {f9c77072-ef86-420b-a013-f462c7e152b5}, !- Schedule Type Limits Name
  ,                                       !- Interpolate to Timestep
  24,                                     !- Hour 1
  0,                                      !- Minute 1
  15.0000009536743;                       !- Value Until Time 1

OS:Schedule:Day,
  {9efff527-c141-4b6b-b242-c6461db64a89}, !- Handle
  Schedule Day 29,                        !- Name
  {f9c77072-ef86-420b-a013-f462c7e152b5}, !- Schedule Type Limits Name
  ,                                       !- Interpolate to Timestep
  24,                                     !- Hour 1
  0,                                      !- Minute 1
  4.5;                                    !- Value Until Time 1

OS:Schedule:Day,
  {f47415c6-ab19-438a-aa39-78fffc8d2a3e}, !- Handle
  Schedule Day 30,                        !- Name
  {f9c77072-ef86-420b-a013-f462c7e152b5}, !- Schedule Type Limits Name
  ,                                       !- Interpolate to Timestep
  24,                                     !- Hour 1
  0,                                      !- Minute 1
  7.50000047683716;                       !- Value Until Time 1

OS:Schedule:Day,
  {899a6003-2add-4d03-a06d-dd6db8052c5c}, !- Handle
  Schedule Day 54,                        !- Name
  {f9c77072-ef86-420b-a013-f462c7e152b5}, !- Schedule Type Limits Name
  ,                                       !- Interpolate to Timestep
  24,                                     !- Hour 1
  0,                                      !- Minute 1
  16.3099994659424;                       !- Value Until Time 1

OS:Schedule:Day,
  {da118696-770a-46bc-b5dc-16d1d7607a43}, !- Handle
  Schedule Day 55,                        !- Name
  {f9c77072-ef86-420b-a013-f462c7e152b5}, !- Schedule Type Limits Name
  ,                                       !- Interpolate to Timestep
  24,                                     !- Hour 1
  0,                                      !- Minute 1
  9.78999996185303;                       !- Value Until Time 1

OS:Schedule:Day,
  {e5c502d9-1428-4483-9afe-7b17a5c4791c}, !- Handle
  Schedule Day 56,                        !- Name
  {f9c77072-ef86-420b-a013-f462c7e152b5}, !- Schedule Type Limits Name
  ,                                       !- Interpolate to Timestep
  24,                                     !- Hour 1
  0,                                      !- Minute 1
  3.25999999046326;                       !- Value Until Time 1

OS:People:Definition,
  {9082ca55-72ed-4139-b5f4-86e7c5de1f3f}, !- Handle
  CTET_QOCUB,                             !- Name
  Area/Person,                            !- Number of People Calculation Method
  ,                                       !- Number of People {people}
  ,                                       !- People per Space Floor Area {person/m2}
  26.1,                                   !- Space Floor Area per Person {m2/person}
  0.3;                                    !- Fraction Radiant

OS:ElectricEquipment:Definition,
  {6d8ef853-98aa-442f-9e6e-2ef207269ab6}, !- Handle
  CTET_QEQUB,                             !- Name
  Watts/Area,                             !- Design Level Calculation Method
  ,                                       !- Design Level {W}
  1.5,                                    !- Watts per Space Floor Area {W/m2}
  ,                                       !- Watts per Person {W/person}
  0,                                      !- Fraction Latent
  0.7,                                    !- Fraction Radiant
  0;                                      !- Fraction Lost

OS:ElectricEquipment:Definition,
  {48d680c4-1a94-4492-8244-631a5ad96189}, !- Handle
  CTET_QEQUM,                             !- Name
  Watts/Area,                             !- Design Level Calculation Method
  ,                                       !- Design Level {W}
  4.5,                                    !- Watts per Space Floor Area {W/m2}
  ,                                       !- Watts per Person {W/person}
  0,                                      !- Fraction Latent
  0.7,                                    !- Fraction Radiant
  0;                                      !- Fraction Lost

OS:ElectricEquipment:Definition,
  {52cdf795-6d5e-4e16-b28d-0b60b51a53da}, !- Handle
  CTET_QEQUA,                             !- Name
  Watts/Area,                             !- Design Level Calculation Method
  ,                                       !- Design Level {W}
  7.5,                                    !- Watts per Space Floor Area {W/m2}
  ,                                       !- Watts per Person {W/person}
  0,                                      !- Fraction Latent
  0.7,                                    !- Fraction Radiant
  0;                                      !- Fraction Lost

OS:Rendering:Color,
  {101bb988-41b2-4e9a-8a4c-8e6bdc540e79}, !- Handle
  Rendering Color 16,                     !- Name
  175,                                    !- Rendering Red Value
  238,                                    !- Rendering Green Value
  238;                                    !- Rendering Blue Value

OS:Rendering:Color,
  {38dcfae3-548b-471b-9273-1448ba661818}, !- Handle
  Rendering Color 17,                     !- Name
  210,                                    !- Rendering Red Value
  105,                                    !- Rendering Green Value
  30;                                     !- Rendering Blue Value

OS:Rendering:Color,
  {6efdabbc-e9af-4fae-b08f-e57ee68d12d4}, !- Handle
  Rendering Color 18,                     !- Name
  240,                                    !- Rendering Red Value
  230,                                    !- Rendering Green Value
  140;                                    !- Rendering Blue Value

OS:Rendering:Color,
  {d956d203-93cf-4320-97ca-9d37de90b200}, !- Handle
  Rendering Color 19,                     !- Name
  255,                                    !- Rendering Red Value
  99,                                     !- Rendering Green Value
  71;                                     !- Rendering Blue Value

OS:Rendering:Color,
  {67761140-d009-4e23-b784-14581899f506}, !- Handle
  Rendering Color 20,                     !- Name
  147,                                    !- Rendering Red Value
  112,                                    !- Rendering Green Value
  219;                                    !- Rendering Blue Value

OS:Rendering:Color,
  {c92f141f-0893-47d1-8fc6-0ea41189b644}, !- Handle
  Rendering Color 21,                     !- Name
  100,                                    !- Rendering Red Value
  149,                                    !- Rendering Green Value
  237;                                    !- Rendering Blue Value

OS:Rendering:Color,
  {ca080326-7f5f-4ca0-872f-3ce398670504}, !- Handle
  Rendering Color 22,                     !- Name
  255,                                    !- Rendering Red Value
  250,                                    !- Rendering Green Value
  205;                                    !- Rendering Blue Value

OS:Rendering:Color,
  {40559916-9d14-4bd5-8052-dfce10507ed0}, !- Handle
  Rendering Color 23,                     !- Name
  216,                                    !- Rendering Red Value
  191,                                    !- Rendering Green Value
  216;                                    !- Rendering Blue Value

OS:Rendering:Color,
  {1eb98906-bd4a-48ed-be4d-877a1780eed1}, !- Handle
  Rendering Color 24,                     !- Name
  221,                                    !- Rendering Red Value
  160,                                    !- Rendering Green Value
  221;                                    !- Rendering Blue Value

OS:Rendering:Color,
  {5f925221-3568-4f7e-88ad-2c82444fbe99}, !- Handle
  Rendering Color 25,                     !- Name
  139,                                    !- Rendering Red Value
  0,                                      !- Rendering Green Value
  0;                                      !- Rendering Blue Value

OS:Rendering:Color,
  {523846cf-49e6-4e00-9224-fb709e8231cf}, !- Handle
  Rendering Color 26,                     !- Name
  0,                                      !- Rendering Red Value
  255,                                    !- Rendering Green Value
  0;                                      !- Rendering Blue Value

OS:Rendering:Color,
  {47ca53e1-5591-4651-842c-0164d353df0e}, !- Handle
  Rendering Color 27,                     !- Name
  85,                                     !- Rendering Red Value
  107,                                    !- Rendering Green Value
  47;                                     !- Rendering Blue Value

OS:Rendering:Color,
  {13c7dd54-024a-4a18-a71f-dbfe66f5438b}, !- Handle
  Rendering Color 28,                     !- Name
  255,                                    !- Rendering Red Value
  239,                                    !- Rendering Green Value
  213;                                    !- Rendering Blue Value

OS:People:Definition,
  {27925911-c93b-4977-ba88-2802b7c0483d}, !- Handle
  CTET_QOCUM,                             !- Name
  Area/Person,                            !- Number of People Calculation Method
  ,                                       !- Number of People {people}
  ,                                       !- People per Space Floor Area {person/m2}
  8.68,                                   !- Space Floor Area per Person {m2/person}
  0.3;                                    !- Fraction Radiant

OS:People:Definition,
  {1b6ea3cf-067e-4c45-9998-fe384a0be990}, !- Handle
  CTET_QOCUA,                             !- Name
  Area/Person,                            !- Number of People Calculation Method
  ,                                       !- Number of People {people}
  ,                                       !- People per Space Floor Area {person/m2}
  5.21,                                   !- Space Floor Area per Person {m2/person}
  0.3;                                    !- Fraction Radiant

OS:Rendering:Color,
  {eb7f5544-84f1-413c-bc5b-59160bdeb2bb}, !- Handle
  Rendering Color 29,                     !- Name
  138,                                    !- Rendering Red Value
  43,                                     !- Rendering Green Value
  226;                                    !- Rendering Blue Value

OS:WindowProperty:FrameAndDivider,
  {78edad44-f7bd-40d2-846b-108ee3367caf}, !- Handle
  Marco de madera [H 80 mm] de densidad media alta, !- Name
  0.08,                                   !- Frame Width {m}