
OS:Version,
  {f5f070f5-bc3f-4c7e-9e2f-0fcd14fa9e80}, !- Handle
  1.12.0;                                 !- Version Identifier

OS:Site,
  {8927501b-94ac-4ebb-ba6f-0700120c6057}, !- Handle
  D3_peninsula,                           !- Name
  40.68,                                  !- Latitude {deg}
  -4.13,                                  !- Longitude {deg}
  1,                                      !- Time Zone {hr}
  667,                                    !- Elevation {m}
  City;                                   !- Terrain

OS:SimulationControl,
  {1f10c4ef-b224-4092-92e5-ed6e81b0cf79}, !- Handle
  No,                                     !- Do Zone Sizing Calculation
  No,                                     !- Do System Sizing Calculation
  No,                                     !- Do Plant Sizing Calculation
  No,                                     !- Run Simulation for Sizing Periods
  Yes,                                    !- Run Simulation for Weather File Run Periods
  0.04,                                   !- Loads Convergence Tolerance Value
  0.4,                                    !- Temperature Convergence Tolerance Value {deltaC}
  FullExterior,                           !- Solar Distribution
  25;                                     !- Maximum Number of Warmup Days

! {"CTE_Altitud":"650","CTE_Coef_stack":"0.00029","CTE_Coef_wind":"0.000231","CTE_Design_flow_rate":"0.63","CTE_Fan_ntot":"0.5","CTE_Fan_sfp":"1.5","CTE_Heat_recovery":"0","CTE_Permeabilidad_ventanas":"Clase 2","CTE_Provincia":"Madrid","CTE_Psi_contorno_huecos":"0.05","CTE_Psi_forjado_cubierta":"0.24","CTE_Psi_forjado_exterior":"0.23","CTE_Psi_frente_forjado":"0.1","CTE_Psi_solera_terreno":"0.28","CTE_Tipo_edificio":"Nuevo","CTE_Uso_edificio":"Residencial"}
OS:Building,
  {1ea2e9a4-0714-4cd3-b7cb-09a16a2a969d}, !- Handle
  CTE_Res_PLANTILLA,                      !- Name
  ,                                       !- Building Sector Type
  0,                                      !- North Axis {deg}
  ,                                       !- Nominal Floor to Floor Height {m}
  ,                                       !- Space Type Name
  ,                                       !- Default Construction Set Name
  ,                                       !- Default Schedule Set Name
  ,                                       !- Standards Number of Stories
  ,                                       !- Standards Number of Above Ground Stories
  ,                                       !- Standards Building Type
  ,                                       !- Standards Number of Living Units
  ,                                       !- Relocatable
  ;                                       !- Nominal Floor to Ceiling Height {m}

OS:ShadowCalculation,
  {61ce9f15-42d1-4aa7-a9df-7e75d3cda8fa}, !- Handle
  7,                                      !- Calculation Frequency
  15000;                                  !- Maximum Figures in Shadow Overlap Calculations

OS:HeatBalanceAlgorithm,
  {5afacf34-940b-41b7-b6b7-7554d6420a55}, !- Handle
  ConductionTransferFunction,             !- Algorithm
  200;                                    !- Surface Temperature Upper Limit {C}

OS:ConvergenceLimits,
  {3c619ede-4dda-4a6f-8337-218d56e355f7}, !- Handle
  1;                                      !- Minimum System Timestep {minutes}

OS:Timestep,
  {9cb96fcf-123e-495d-8fa6-b7286ea708b1}, !- Handle
  6;                                      !- Number of Timesteps per Hour

OS:RunPeriod,
  {ea3e53a0-9c01-4abb-b7de-f33c0f5ea9cb}, !- Handle
  anual,                                  !- Name
  1,                                      !- Begin Month
  1,                                      !- Begin Day of Month
  12,                                     !- End Month
  31,                                     !- End Day of Month
  No,                                     !- Use Weather File Holidays and Special Days
  No,                                     !- Use Weather File Daylight Saving Period
  Yes,                                    !- Apply Weekend Holiday Rule
  Yes,                                    !- Use Weather File Rain Indicators
  Yes,                                    !- Use Weather File Snow Indicators
  1;                                      !- Number of Times Runperiod to be Repeated

OS:YearDescription,
  {650fc405-488f-4269-b173-ebb71bc29c61}, !- Handle
  2007,                                   !- Calendar Year
  ,                                       !- Day of Week for Start Day
  ;                                       !- Is Leap Year

OS:Facility,
  {d7240b13-4ebf-4472-9046-b2769a5f59af}; !- Handle

OS:Rendering:Color,
  {0fe86429-7f32-4e1e-a16f-07050b8b1a92}, !- Handle
  Rendering Color 1,                      !- Name
  199,                                    !- Rendering Red Value
  21,                                     !- Rendering Green Value
  133,                                    !- Rendering Blue Value
  ;                                       !- Rendering Alpha Value

OS:Rendering:Color,
  {2511a633-e707-4acf-91be-e92d8a38b5e7}, !- Handle
  Rendering Color 2,                      !- Name
  47,                                     !- Rendering Red Value
  79,                                     !- Rendering Green Value
  79;                                     !- Rendering Blue Value

OS:Rendering:Color,
  {9cd753ea-2c3c-4741-991b-ba294380e97e}, !- Handle
  Rendering Color 3,                      !- Name
  138,                                    !- Rendering Red Value
  43,                                     !- Rendering Green Value
  226;                                    !- Rendering Blue Value

OS:Rendering:Color,
  {740d450e-0fb5-4baa-a1e4-0ca0e22feddf}, !- Handle
  Rendering Color 4,                      !- Name
  0,                                      !- Rendering Red Value
  0,                                      !- Rendering Green Value
  205;                                    !- Rendering Blue Value

OS:Rendering:Color,
  {7b1e9e4e-786a-47d3-91e8-d09ce41d5591}, !- Handle
  Rendering Color 5,                      !- Name
  245,                                    !- Rendering Red Value
  245,                                    !- Rendering Green Value
  220;                                    !- Rendering Blue Value

OS:Rendering:Color,
  {e3f489d1-e19f-4972-8b96-ec2137ba0a18}, !- Handle
  Rendering Color 6,                      !- Name
  220,                                    !- Rendering Red Value
  220,                                    !- Rendering Green Value
  220;                                    !- Rendering Blue Value

OS:Rendering:Color,
  {45f3d929-7f27-474d-b8e7-a4b7eaeb7763}, !- Handle
  Rendering Color 7,                      !- Name
  0,                                      !- Rendering Red Value
  0,                                      !- Rendering Green Value
  205;                                    !- Rendering Blue Value

OS:Rendering:Color,
  {9b20f4c6-8dc3-4f04-8783-a8c37faaf4db}, !- Handle
  Rendering Color 8,                      !- Name
  210,                                    !- Rendering Red Value
  180,                                    !- Rendering Green Value
  140;                                    !- Rendering Blue Value

OS:Rendering:Color,
  {129da498-80aa-4960-ae3d-7a46b8d5eb15}, !- Handle
  Rendering Color 9,                      !- Name
  173,                                    !- Rendering Red Value
  216,                                    !- Rendering Green Value
  230;                                    !- Rendering Blue Value

OS:Rendering:Color,
  {9ce0a3ba-3520-4d3a-83a0-3a91cb70d0a0}, !- Handle
  Rendering Color 10,                     !- Name
  0,                                      !- Rendering Red Value
  206,                                    !- Rendering Green Value
  209;                                    !- Rendering Blue Value

OS:Rendering:Color,
  {cfed8588-4ccc-42be-9c96-e18ba1156772}, !- Handle
  Rendering Color 11,                     !- Name
  34,                                     !- Rendering Red Value
  139,                                    !- Rendering Green Value
  34;                                     !- Rendering Blue Value

OS:ClimateZones,
  {1b585337-7a27-4bfd-8a07-f8babcc87798}, !- Handle
  ,                                       !- Active Institution
  ,                                       !- Active Year
  ASHRAE,                                 !- Climate Zone Institution Name 1
  ANSI/ASHRAE Standard 169,               !- Climate Zone Document Name 1
  2006,                                   !- Climate Zone Document Year 1
  ,                                       !- Climate Zone Value 1
  CEC,                                    !- Climate Zone Institution Name 2
  California Climate Zone Descriptions,   !- Climate Zone Document Name 2
  1995,                                   !- Climate Zone Document Year 2
  ;                                       !- Climate Zone Value 2

OS:LifeCycleCost:Parameters,
  {cdf15cd1-dc5d-41e1-8d02-e6db77c47498}, !- Handle
  FEMP,                                   !- Analysis Type
  ,                                       !- Discounting Convention
  ,                                       !- Inflation Approach
  ,                                       !- Real Discount Rate
  ,                                       !- Nominal Discount Rate
  ,                                       !- Inflation
  ,                                       !- Base Date Month
  ,                                       !- Base Date Year
  ,                                       !- Service Date Month
  ,                                       !- Service Date Year
  ,                                       !- Length of Study Period in Years
  ,                                       !- Tax Rate
  ,                                       !- Depreciation Method
  Yes;                                    !- Use NIST Fuel Escalation Rates

OS:ScheduleTypeLimits,
  {9357af02-3b08-4e12-8be9-2e56fbbce515}, !- Handle
  Dimensionless,                          !- Name
  ,                                       !- Lower Limit Value
  ,                                       !- Upper Limit Value
  Continuous;                             !- Numeric Type

OS:ScheduleTypeLimits,
  {3f34b003-3937-4fda-a10b-cd38d9ab83ff}, !- Handle
  Fractional,                             !- Name
  0,                                      !- Lower Limit Value
  1,                                      !- Upper Limit Value
  Continuous;                             !- Numeric Type

OS:ScheduleTypeLimits,
  {4268bd92-36a9-4993-b7a5-cf7f788eb879}, !- Handle
  ActivityLevel,                          !- Name
  0,                                      !- Lower Limit Value
  ,                                       !- Upper Limit Value
  Continuous,                             !- Numeric Type
  ActivityLevel;                          !- Unit Type

OS:ScheduleTypeLimits,
  {2e230eb6-5a39-47b6-8601-2a9a9ec5ddaa}, !- Handle
  OnOff,                                  !- Name
  0,                                      !- Lower Limit Value
  1,                                      !- Upper Limit Value
  Discrete,                               !- Numeric Type
  Availability;                           !- Unit Type

OS:ScheduleTypeLimits,
  {f9c77072-ef86-420b-a013-f462c7e152b5}, !- Handle
  Capacity,                               !- Name
  0,                                      !- Lower Limit Value
  ,                                       !- Upper Limit Value
  Continuous,                             !- Numeric Type
  Capacity;                               !- Unit Type

OS:ScheduleTypeLimits,
  {7348a0ca-01bd-4035-8a4a-35073c3ef5ca}, !- Handle
  ClothingInsulation,                     !- Name
  0,                                      !- Lower Limit Value
  ,                                       !- Upper Limit Value
  Continuous,                             !- Numeric Type
  ClothingInsulation;                     !- Unit Type

OS:ScheduleTypeLimits,
  {739f7f3f-67f4-474a-989e-0a5c6dd2009f}, !- Handle
  ControlMode,                            !- Name
  0,                                      !- Lower Limit Value
  1,                                      !- Upper Limit Value
  Discrete,                               !- Numeric Type
  ControlMode;                            !- Unit Type

OS:ScheduleTypeLimits,
  {2d3a3001-8a97-4645-8323-4775f7af0fd6}, !- Handle
  DeltaTemperature,                       !- Name
  ,                                       !- Lower Limit Value
  ,                                       !- Upper Limit Value
  Continuous,                             !- Numeric Type
  DeltaTemperature;                       !- Unit Type

OS:ScheduleTypeLimits,
  {0b90d899-97c8-47ed-aaf3-45804d70735f}, !- Handle
  Dimensionless 1,                        !- Name
  0,                                      !- Lower Limit Value
  1,                                      !- Upper Limit Value
  Continuous,                             !- Numeric Type
  Dimensionless;                          !- Unit Type

OS:ScheduleTypeLimits,
  {62f0dfa4-4f27-4d9e-8936-0663f56ae945}, !- Handle
  LinearPowerDensity,                     !- Name
  0,                                      !- Lower Limit Value
  ,                                       !- Upper Limit Value
  Continuous,                             !- Numeric Type
  LinearPowerDensity;                     !- Unit Type

OS:ScheduleTypeLimits,
  {c2b540f8-9e8a-4b53-99e4-8b69c78ce6ac}, !- Handle
  MassFlowRate,                           !- Name
  ,                                       !- Lower Limit Value
  ,                                       !- Upper Limit Value
  Continuous,                             !- Numeric Type
  MassFlowRate;                           !- Unit Type

OS:ScheduleTypeLimits,
  {df6d3324-5bac-43cc-96e6-d93ecc371610}, !- Handle
  Percent,                                !- Name
  0,                                      !- Lower Limit Value
  100,                                    !- Upper Limit Value
  Continuous,                             !- Numeric Type
  Percent;                                !- Unit Type

OS:ScheduleTypeLimits,
  {9cdd3249-b44b-421c-afd6-1c6df198a16e}, !- Handle
  Pressure,                               !- Name
  ,                                       !- Lower Limit Value
  ,                                       !- Upper Limit Value
  Continuous,                             !- Numeric Type
  Pressure;                               !- Unit Type

OS:ScheduleTypeLimits,
  {3e8cde08-facf-4162-8482-d1de80427772}, !- Handle
  RotationsPerMinute,                     !- Name
  ,                                       !- Lower Limit Value
  ,                                       !- Upper Limit Value
  Continuous,                             !- Numeric Type
  RotationsPerMinute;                     !- Unit Type

OS:ScheduleTypeLimits,
  {ae0a9df5-cb98-4c78-bce5-3089e79621ec}, !- Handle
  Temperature,                            !- Name
  ,                                       !- Lower Limit Value
  ,                                       !- Upper Limit Value
  Continuous,                             !- Numeric Type
  Temperature;                            !- Unit Type

OS:ScheduleTypeLimits,
  {aba4a27e-1e72-42ec-8e81-9209424c8a2b}, !- Handle
  Velocity,                               !- Name
  0,                                      !- Lower Limit Value
  ,                                       !- Upper Limit Value
  Continuous,                             !- Numeric Type
  Velocity;                               !- Unit Type

OS:ScheduleTypeLimits,
  {8aa67699-ba6c-4f1a-89aa-0a13b8cbeb97}, !- Handle
  VolumetricFlowRate,                     !- Name
  0,                                      !- Lower Limit Value
  ,                                       !- Upper Limit Value
  Continuous,                             !- Numeric Type
  VolumetricFlowRate;                     !- Unit Type

OS:Schedule:Ruleset,
  {d484e542-568e-49e7-b159-a5efa1681eca}, !- Handle
  CTE_SiempreOff,                         !- Name
  {2e230eb6-5a39-47b6-8601-2a9a9ec5ddaa}, !- Schedule Type Limits Name
  {11e2cf40-29df-41be-8d35-0c810112a48e}; !- Default Day Schedule Name

OS:Schedule:Day,
  {11e2cf40-29df-41be-8d35-0c810112a48e}, !- Handle
  Schedule Day 8,                         !- Name
  {2e230eb6-5a39-47b6-8601-2a9a9ec5ddaa}, !- Schedule Type Limits Name
  ,                                       !- Interpolate to Timestep
  24,                                     !- Hour 1
  0,                                      !- Minute 1
  0;                                      !- Value Until Time 1

OS:Schedule:Ruleset,
  {443ec997-1dab-4351-92d5-c29cab4f58ca}, !- Handle
  CTE_SiempreOn,                          !- Name
  {2e230eb6-5a39-47b6-8601-2a9a9ec5ddaa}, !- Schedule Type Limits Name
  {aff37d59-4ebe-4a4e-8a2a-ca4f106eba05}; !- Default Day Schedule Name

OS:Schedule:Day,
  {aff37d59-4ebe-4a4e-8a2a-ca4f106eba05}, !- Handle
  Schedule Day 9,                         !- Name
  {2e230eb6-5a39-47b6-8601-2a9a9ec5ddaa}, !- Schedule Type Limits Name
  ,                                       !- Interpolate to Timestep
  24,                                     !- Hour 1
  0,                                      !- Minute 1
  1;                                      !- Value Until Time 1

OS:Schedule:Ruleset,
  {f39a3da6-eba3-4b04-85d4-de8842da5397}, !- Handle
  CTER24B_TCAL,                           !- Name
  {ae0a9df5-cb98-4c78-bce5-3089e79621ec}, !- Schedule Type Limits Name
  {4d4da4b0-34ad-4ca7-9585-f25a981e8f8b}; !- Default Day Schedule Name

OS:Schedule:Day,
  {4d4da4b0-34ad-4ca7-9585-f25a981e8f8b}, !- Handle
  Schedule Day 10,                        !- Name
  {ae0a9df5-cb98-4c78-bce5-3089e79621ec}, !- Schedule Type Limits Name
  ,                                       !- Interpolate to Timestep
  24,                                     !- Hour 1
  0,                                      !- Minute 1
  23.5;                                   !- Value Until Time 1

OS:Schedule:Rule,
  {09f63442-70bb-4328-b440-64dc35fabfc7}, !- Handle
  Schedule Rule 3,                        !- Name
  {f39a3da6-eba3-4b04-85d4-de8842da5397}, !- Schedule Ruleset Name
  2,                                      !- Rule Order
  {867503b8-e520-4c6c-bc58-4e9840a28384}, !- Day Schedule Name
  Yes,                                    !- Apply Sunday
  Yes,                                    !- Apply Monday
  Yes,                                    !- Apply Tuesday
  Yes,                                    !- Apply Wednesday
  Yes,                                    !- Apply Thursday
  Yes,                                    !- Apply Friday
  Yes,                                    !- Apply Saturday
  ,                                       !- Apply Holiday
  DateRange,                              !- Date Specification Type
  10,                                     !- Start Month
  1,                                      !- Start Day
  12,                                     !- End Month
  31;                                     !- End Day

OS:Schedule:Day,
  {867503b8-e520-4c6c-bc58-4e9840a28384}, !- Handle
  Schedule Day 11,                        !- Name
  {ae0a9df5-cb98-4c78-bce5-3089e79621ec}, !- Schedule Type Limits Name
  ,                                       !- Interpolate to Timestep
  7,                                      !- Hour 1
  0,                                      !- Minute 1
  17,                                     !- Value Until Time 1
  23,                                     !- Hour 2
  0,                                      !- Minute 2
  20,                                     !- Value Until Time 2
  24,                                     !- Hour 3
  0,                                      !- Minute 3
  17;                                     !- Value Until Time 3

OS:Schedule:Rule,
  {072f9a15-b0dd-4241-8d01-5ef8314cbf74}, !- Handle
  Schedule Rule 5,                        !- Name
  {f39a3da6-eba3-4b04-85d4-de8842da5397}, !- Schedule Ruleset Name
  1,                                      !- Rule Order
  {e7cdaa97-7371-4955-8d17-59b8153ca85e}, !- Day Schedule Name
  Yes,                                    !- Apply Sunday
  Yes,                                    !- Apply Monday
  Yes,                                    !- Apply Tuesday
  Yes,                                    !- Apply Wednesday
  Yes,                                    !- Apply Thursday
  Yes,                                    !- Apply Friday
  Yes,                                    !- Apply Saturday
  ,                                       !- Apply Holiday
  DateRange,                              !- Date Specification Type
  6,                                      !- Start Month
  1,                                      !- Start Day
  9,                                      !- End Month
  30;                                     !- End Day

OS:Schedule:Day,
  {e7cdaa97-7371-4955-8d17-59b8153ca85e}, !- Handle
  Schedule Day 12,                        !- Name
  {ae0a9df5-cb98-4c78-bce5-3089e79621ec}, !- Schedule Type Limits Name
  ,                                       !- Interpolate to Timestep
  24,                                     !- Hour 1
  0,                                      !- Minute 1
  -50;                                    !- Value Until Time 1

OS:Schedule:Rule,
  {d555210d-9d13-421c-bb72-17e33bcd5834}, !- Handle
  Schedule Rule 6,                        !- Name
  {f39a3da6-eba3-4b04-85d4-de8842da5397}, !- Schedule Ruleset Name
  0,                                      !- Rule Order
  {c3c081e2-bbeb-4d1c-b26f-ade08c5d178e}, !- Day Schedule Name
  Yes,                                    !- Apply Sunday
  Yes,                                    !- Apply Monday
  Yes,                                    !- Apply Tuesday
  Yes,                                    !- Apply Wednesday
  Yes,                                    !- Apply Thursday
  Yes,                                    !- Apply Friday
  Yes,                                    !- Apply Saturday
  ,                                       !- Apply Holiday
  DateRange,                              !- Date Specification Type
  1,                                      !- Start Month
  1,                                      !- Start Day
  5,                                      !- End Month
  31;                                     !- End Day

OS:Schedule:Day,
  {c3c081e2-bbeb-4d1c-b26f-ade08c5d178e}, !- Handle
  Schedule Day 13,                        !- Name
  {ae0a9df5-cb98-4c78-bce5-3089e79621ec}, !- Schedule Type Limits Name
  ,                                       !- Interpolate to Timestep
  7,                                      !- Hour 1
  0,                                      !- Minute 1
  17,                                     !- Value Until Time 1
  23,                                     !- Hour 2
  0,                                      !- Minute 2
  20,                                     !- Value Until Time 2
  24,                                     !- Hour 3
  0,                                      !- Minute 3
  17;                                     !- Value Until Time 3

OS:Schedule:Ruleset,
  {10105971-3f68-4579-9506-bf26b2114eba}, !- Handle
  CTER24B_TREF,                           !- Name
  {ae0a9df5-cb98-4c78-bce5-3089e79621ec}, !- Schedule Type Limits Name
  {2a7b35de-4769-42eb-bd5e-3a38c5366607}; !- Default Day Schedule Name

OS:Schedule:Day,
  {2a7b35de-4769-42eb-bd5e-3a38c5366607}, !- Handle
  Schedule Day 14,                        !- Name
  {ae0a9df5-cb98-4c78-bce5-3089e79621ec}, !- Schedule Type Limits Name
  ,                                       !- Interpolate to Timestep
  24,                                     !- Hour 1
  0,                                      !- Minute 1
  23.5;                                   !- Value Until Time 1

OS:Schedule:Rule,
  {377d6d05-81ce-4757-9e33-e476612e5d4b}, !- Handle
  Schedule Rule 7,                        !- Name
  {10105971-3f68-4579-9506-bf26b2114eba}, !- Schedule Ruleset Name
  2,                                      !- Rule Order
  {b7edf17e-9e62-4f90-a20f-9da980124f07}, !- Day Schedule Name
  Yes,                                    !- Apply Sunday
  Yes,                                    !- Apply Monday
  Yes,                                    !- Apply Tuesday
  Yes,                                    !- Apply Wednesday
  Yes,                                    !- Apply Thursday
  Yes,                                    !- Apply Friday
  Yes,                                    !- Apply Saturday
  ,                                       !- Apply Holiday
  DateRange,                              !- Date Specification Type
  10,                                     !- Start Month
  1,                                      !- Start Day
  12,                                     !- End Month
  31;                                     !- End Day

OS:Schedule:Day,
  {b7edf17e-9e62-4f90-a20f-9da980124f07}, !- Handle
  Schedule Day 15,                        !- Name
  {ae0a9df5-cb98-4c78-bce5-3089e79621ec}, !- Schedule Type Limits Name
  ,                                       !- Interpolate to Timestep
  24,                                     !- Hour 1
  0,                                      !- Minute 1
  99.0000076293945;                       !- Value Until Time 1

OS:Schedule:Rule,
  {da134e41-f6a4-4e20-89e0-14f9a8e56f3a}, !- Handle
  Schedule Rule 8,                        !- Name
  {10105971-3f68-4579-9506-bf26b2114eba}, !- Schedule Ruleset Name
  1,                                      !- Rule Order
  {252d0e21-8219-40d9-bf35-d4c796dff148}, !- Day Schedule Name
  Yes,                                    !- Apply Sunday
  Yes,                                    !- Apply Monday
  Yes,                                    !- Apply Tuesday
  Yes,                                    !- Apply Wednesday
  Yes,                                    !- Apply Thursday
  Yes,                                    !- Apply Friday
  Yes,                                    !- Apply Saturday
  ,                                       !- Apply Holiday
  DateRange,                              !- Date Specification Type
  6,                                      !- Start Month
  1,                                      !- Start Day
  9,                                      !- End Month
  30;                                     !- End Day

OS:Schedule:Day,
  {252d0e21-8219-40d9-bf35-d4c796dff148}, !- Handle
  Schedule Day 16,                        !- Name
  {ae0a9df5-cb98-4c78-bce5-3089e79621ec}, !- Schedule Type Limits Name
  ,                                       !- Interpolate to Timestep
  7,                                      !- Hour 1
  0,                                      !- Minute 1
  27,                                     !- Value Until Time 1
  15,                                     !- Hour 2
  0,                                      !- Minute 2
  99,                                     !- Value Until Time 2
  23,                                     !- Hour 3
  0,                                      !- Minute 3
  24.9999980926514,                       !- Value Until Time 3
  24,                                     !- Hour 4
  0,                                      !- Minute 4
  27;                                     !- Value Until Time 4

OS:Schedule:Rule,
  {19289b68-4786-43a8-8b11-b01bcc3de89f}, !- Handle
  Schedule Rule 9,                        !- Name
  {10105971-3f68-4579-9506-bf26b2114eba}, !- Schedule Ruleset Name
  0,                                      !- Rule Order
  {8c7d15c1-15d1-4f4e-ba29-52091795be03}, !- Day Schedule Name
  Yes,                                    !- Apply Sunday
  Yes,                                    !- Apply Monday
  Yes,                                    !- Apply Tuesday
  Yes,                                    !- Apply Wednesday
  Yes,                                    !- Apply Thursday
  Yes,                                    !- Apply Friday
  Yes,                                    !- Apply Saturday
  ,                                       !- Apply Holiday
  DateRange,                              !- Date Specification Type
  1,                                      !- Start Month
  1,                                      !- Start Day
  5,                                      !- End Month
  31;                                     !- End Day

OS:Schedule:Day,
  {8c7d15c1-15d1-4f4e-ba29-52091795be03}, !- Handle
  Schedule Day 17,                        !- Name
  {ae0a9df5-cb98-4c78-bce5-3089e79621ec}, !- Schedule Type Limits Name
  ,                                       !- Interpolate to Timestep
  24,                                     !- Hour 1
  0,                                      !- Minute 1
  99.0000076293945;                       !- Value Until Time 1

OS:DefaultConstructionSet,
  {40a7610b-4c3e-493f-8444-61470397d9b0}, !- Handle
  CTE_EdificioReferencia_zonaA,           !- Name
  {b07f11fe-d881-425d-85d4-76f335c4e11b}, !- Default Exterior Surface Constructions Name
  {23f4a6ed-2bf6-47e9-915d-905a1e564117}, !- Default Interior Surface Constructions Name