
Version,
  8.5;                                    !- Version Identifier

LifeCycleCost:Parameters,
  {2dde5315-bd2e-4020-9562-8121ca372fba}, !- Name
  EndOfYear,                              !- Discounting Convention
  ConstantDollar,                         !- Inflation Approach
  0.03,                                   !- Real Discount Rate
  ,                                       !- Nominal Discount Rate
  ,                                       !- Inflation
  ,                                       !- Base Date Month
  2011,                                   !- Base Date Year
  ,                                       !- Service Date Month
  2011,                                   !- Service Date Year
  25,                                     !- Length of Study Period in Years
  ,                                       !- Tax rate
  None;                                   !- Depreciation Method

LifeCycleCost:UsePriceEscalation,
  U.S. Avg  Commercial-Electricity,       !- Name
  Electricity,                            !- Resource
  2011,                                   !- Escalation Start Year
  January,                                !- Escalation Start Month
  0.9838,                                 !- Year Escalation 1
  0.9730,                                 !- Year Escalation 2
  0.9632,                                 !- Year Escalation 3
  0.9611,                                 !- Year Escalation 4
  0.9571,                                 !- Year Escalation 5
  0.9553,                                 !- Year Escalation 6
  0.9539,                                 !- Year Escalation 7
  0.9521,                                 !- Year Escalation 8
  0.9546,                                 !- Year Escalation 9
  0.9550,                                 !- Year Escalation 10
  0.9553,                                 !- Year Escalation 11
  0.9564,                                 !- Year Escalation 12
  0.9575,                                 !- Year Escalation 13
  0.9596,                                 !- Year Escalation 14
  0.9618,                                 !- Year Escalation 15
  0.9614,                                 !- Year Escalation 16
  0.9618,                                 !- Year Escalation 17
  0.9618,                                 !- Year Escalation 18
  0.9593,                                 !- Year Escalation 19
  0.9589,                                 !- Year Escalation 20
  0.9607,                                 !- Year Escalation 21
  0.9625,                                 !- Year Escalation 22
  0.9650,                                 !- Year Escalation 23
  0.9708,                                 !- Year Escalation 24
  0.9751,                                 !- Year Escalation 25
  0.9762,                                 !- Year Escalation 26
  0.9766,                                 !- Year Escalation 27
  0.9766,                                 !- Year Escalation 28
  0.9769,                                 !- Year Escalation 29
  0.9773;                                 !- Year Escalation 30

LifeCycleCost:UsePriceEscalation,
  U.S. Avg  Commercial-Distillate Oil,    !- Name
  FuelOil#1,                              !- Resource
  2011,                                   !- Escalation Start Year
  January,                                !- Escalation Start Month
  0.9714,                                 !- Year Escalation 1
  0.9730,                                 !- Year Escalation 2
  0.9942,                                 !- Year Escalation 3
  1.0164,                                 !- Year Escalation 4
  1.0541,                                 !- Year Escalation 5
  1.0928,                                 !- Year Escalation 6
  1.1267,                                 !- Year Escalation 7
  1.1580,                                 !- Year Escalation 8
  1.1792,                                 !- Year Escalation 9
  1.1967,                                 !- Year Escalation 10
  1.2200,                                 !- Year Escalation 11
  1.2333,                                 !- Year Escalation 12
  1.2566,                                 !- Year Escalation 13
  1.2709,                                 !- Year Escalation 14
  1.2826,                                 !- Year Escalation 15
  1.2985,                                 !- Year Escalation 16
  1.3102,                                 !- Year Escalation 17
  1.3250,                                 !- Year Escalation 18
  1.3261,                                 !- Year Escalation 19
  1.3282,                                 !- Year Escalation 20
  1.3324,                                 !- Year Escalation 21
  1.3356,                                 !- Year Escalation 22
  1.3431,                                 !- Year Escalation 23
  1.3510,                                 !- Year Escalation 24
  1.3568,                                 !- Year Escalation 25
  1.3606,                                 !- Year Escalation 26
  1.3637,                                 !- Year Escalation 27
  1.3674,                                 !- Year Escalation 28
  1.3706,                                 !- Year Escalation 29
  1.3743;                                 !- Year Escalation 30

LifeCycleCost:UsePriceEscalation,
  U.S. Avg  Commercial-Residual Oil,      !- Name
  FuelOil#2,                              !- Resource
  2011,                                   !- Escalation Start Year
  January,                                !- Escalation Start Month
  0.8469,                                 !- Year Escalation 1
  0.8257,                                 !- Year Escalation 2
  0.8681,                                 !- Year Escalation 3
  0.8988,                                 !- Year Escalation 4
  0.9289,                                 !- Year Escalation 5
  0.9604,                                 !- Year Escalation 6
  0.9897,                                 !- Year Escalation 7
  1.0075,                                 !- Year Escalation 8
  1.0314,                                 !- Year Escalation 9
  1.0554,                                 !- Year Escalation 10
  1.0861,                                 !- Year Escalation 11
  1.1278,                                 !- Year Escalation 12
  1.1497,                                 !- Year Escalation 13
  1.1620,                                 !- Year Escalation 14
  1.1743,                                 !- Year Escalation 15
  1.1852,                                 !- Year Escalation 16
  1.1948,                                 !- Year Escalation 17
  1.2037,                                 !- Year Escalation 18
  1.2071,                                 !- Year Escalation 19
  1.2119,                                 !- Year Escalation 20
  1.2139,                                 !- Year Escalation 21
  1.2194,                                 !- Year Escalation 22
  1.2276,                                 !- Year Escalation 23
  1.2365,                                 !- Year Escalation 24
  1.2420,                                 !- Year Escalation 25
  1.2461,                                 !- Year Escalation 26
  1.2509,                                 !- Year Escalation 27
  1.2550,                                 !- Year Escalation 28
  1.2591,                                 !- Year Escalation 29
  1.2638;                                 !- Year Escalation 30

LifeCycleCost:UsePriceEscalation,
  U.S. Avg  Commercial-Natural gas,       !- Name
  NaturalGas,                             !- Resource
  2011,                                   !- Escalation Start Year
  January,                                !- Escalation Start Month
  0.9823,                                 !- Year Escalation 1
  0.9557,                                 !- Year Escalation 2
  0.9279,                                 !- Year Escalation 3
  0.9257,                                 !- Year Escalation 4
  0.9346,                                 !- Year Escalation 5
  0.9412,                                 !- Year Escalation 6
  0.9512,                                 !- Year Escalation 7
  0.9645,                                 !- Year Escalation 8
  0.9856,                                 !- Year Escalation 9
  1.0067,                                 !- Year Escalation 10
  1.0222,                                 !- Year Escalation 11
  1.0410,                                 !- Year Escalation 12
  1.0610,                                 !- Year Escalation 13
  1.0787,                                 !- Year Escalation 14
  1.0942,                                 !- Year Escalation 15
  1.1098,                                 !- Year Escalation 16
  1.1220,                                 !- Year Escalation 17
  1.1308,                                 !- Year Escalation 18
  1.1386,                                 !- Year Escalation 19
  1.1486,                                 !- Year Escalation 20
  1.1619,                                 !- Year Escalation 21
  1.1763,                                 !- Year Escalation 22
  1.1918,                                 !- Year Escalation 23
  1.2118,                                 !- Year Escalation 24
  1.2284,                                 !- Year Escalation 25
  1.2439,                                 !- Year Escalation 26
  1.2605,                                 !- Year Escalation 27
  1.2772,                                 !- Year Escalation 28
  1.2938,                                 !- Year Escalation 29
  1.3115;                                 !- Year Escalation 30

LifeCycleCost:UsePriceEscalation,
  U.S. Avg  Commercial-Coal,              !- Name
  Coal,                                   !- Resource
  2011,                                   !- Escalation Start Year
  January,                                !- Escalation Start Month
  0.9970,                                 !- Year Escalation 1
  1.0089,                                 !- Year Escalation 2
  1.0089,                                 !- Year Escalation 3
  0.9941,                                 !- Year Escalation 4
  0.9941,                                 !- Year Escalation 5
  1.0000,                                 !- Year Escalation 6
  1.0030,                                 !- Year Escalation 7
  1.0059,                                 !- Year Escalation 8
  1.0089,                                 !- Year Escalation 9
  1.0119,                                 !- Year Escalation 10
  1.0148,                                 !- Year Escalation 11
  1.0178,                                 !- Year Escalation 12
  1.0208,                                 !- Year Escalation 13
  1.0267,                                 !- Year Escalation 14
  1.0297,                                 !- Year Escalation 15
  1.0356,                                 !- Year Escalation 16
  1.0415,                                 !- Year Escalation 17
  1.0534,                                 !- Year Escalation 18
  1.0564,                                 !- Year Escalation 19
  1.0593,                                 !- Year Escalation 20
  1.0653,                                 !- Year Escalation 21
  1.0712,                                 !- Year Escalation 22
  1.0742,                                 !- Year Escalation 23
  1.0801,                                 !- Year Escalation 24
  1.0831,                                 !- Year Escalation 25
  1.0831,                                 !- Year Escalation 26
  1.0861,                                 !- Year Escalation 27
  1.0890,                                 !- Year Escalation 28
  1.0920,                                 !- Year Escalation 29
  1.0950;                                 !- Year Escalation 30

Building,
  CTE_Res_PLANTILLA,                      !- Name
  0,                                      !- North Axis {deg}
  City,                                   !- Terrain
  0.04,                                   !- Loads Convergence Tolerance Value
  0.4,                                    !- Temperature Convergence Tolerance Value {deltaC}
  FullExterior,                           !- Solar Distribution
  25,                                     !- Maximum Number of Warmup Days
  ;                                       !- Minimum Number of Warmup Days

Zone,
  garaje,                                 !- Name
  ,                                       !- Direction of Relative North {deg}
  32.3225952321272,                       !- X Origin {m}
  -0.157486503686956,                     !- Y Origin {m}
  0,                                      !- Z Origin {m}
  ,                                       !- Type
  ,                                       !- Multiplier
  ,                                       !- Ceiling Height {m}
  ,                                       !- Volume {m3}
  ,                                       !- Floor Area {m2}
  ,                                       !- Zone Inside Convection Algorithm
  ,                                       !- Zone Outside Convection Algorithm
  No;                                     !- Part of Total Floor Area

BuildingSurface:Detailed,
  Surface 25,                             !- Name
  Wall,                                   !- Surface Type
  CTE_Ref_Muro Exterior_zona D,           !- Construction Name
  garaje,                                 !- Zone Name
  Outdoors,                               !- Outside Boundary Condition
  ,                                       !- Outside Boundary Condition Object
  SunExposed,                             !- Sun Exposure
  WindExposed,                            !- Wind Exposure
  ,                                       !- View Factor to Ground
  ,                                       !- Number of Vertices
  -9.02373677624998, 7.26576928277233, 3, !- X,Y,Z Vertex 1 {m}
  -9.02373677624998, 7.26576928277233, 0, !- X,Y,Z Vertex 2 {m}
  -13.02373677625, 7.26576928277233, 0,   !- X,Y,Z Vertex 3 {m}
  -13.02373677625, 7.26576928277233, 3;   !- X,Y,Z Vertex 4 {m}

BuildingSurface:Detailed,
  Surface 26,                             !- Name
  Roof,                                   !- Surface Type
  CTE_Ref_Cubierta_zona D,                !- Construction Name
  garaje,                                 !- Zone Name
  Outdoors,                               !- Outside Boundary Condition
  ,                                       !- Outside Boundary Condition Object
  SunExposed,                             !- Sun Exposure
  WindExposed,                            !- Wind Exposure
  ,                                       !- View Factor to Ground
  ,                                       !- Number of Vertices
  -9.02373677624998, 0.26576928277233, 3, !- X,Y,Z Vertex 1 {m}
  -9.02373677624998, 7.26576928277233, 3, !- X,Y,Z Vertex 2 {m}
  -13.02373677625, 7.26576928277233, 3,   !- X,Y,Z Vertex 3 {m}
  -13.02373677625, 0.26576928277233, 3;   !- X,Y,Z Vertex 4 {m}

BuildingSurface:Detailed,
  Surface 27,                             !- Name
  Wall,                                   !- Surface Type
  CTE_Ref_Muro Exterior_zona D,           !- Construction Name
  garaje,                                 !- Zone Name
  Outdoors,                               !- Outside Boundary Condition
  ,                                       !- Outside Boundary Condition Object
  SunExposed,                             !- Sun Exposure
  WindExposed,                            !- Wind Exposure
  ,                                       !- View Factor to Ground
  ,                                       !- Number of Vertices
  -13.02373677625, 0.26576928277233, 3,   !- X,Y,Z Vertex 1 {m}
  -13.02373677625, 0.26576928277233, 0,   !- X,Y,Z Vertex 2 {m}
  -9.02373677624998, 0.26576928277233, 0, !- X,Y,Z Vertex 3 {m}
  -9.02373677624998, 0.26576928277233, 3; !- X,Y,Z Vertex 4 {m}

FenestrationSurface:Detailed,
  Sub Surface 2,                          !- Name
  GlassDoor,                              !- Surface Type
  CTE_Ref_Huecos_zona D,                  !- Construction Name
  Surface 27,                             !- Building Surface Name
  ,                                       !- Outside Boundary Condition Object
  ,                                       !- View Factor to Ground
  ,                                       !- Shading Control Name
  CTE_Ref_marco_zona D,                   !- Frame and Divider Name
  ,                                       !- Multiplier
  ,                                       !- Number of Vertices
  -12.22373677625, 0.26576928277233, 2.1, !- X,Y,Z Vertex 1 {m}
  -12.22373677625, 0.26576928277233, 6.68894544976281e-032, !- X,Y,Z Vertex 2 {m}
  -9.82373677624999, 0.26576928277233, -6.68894544976281e-032, !- X,Y,Z Vertex 3 {m}
  -9.82373677624999, 0.26576928277233, 2.1; !- X,Y,Z Vertex 4 {m}

BuildingSurface:Detailed,
  Surface 28,                             !- Name
  Wall,                                   !- Surface Type
  CTE_Ref_Partición interior,            !- Construction Name
  garaje,                                 !- Zone Name
  Surface,                                !- Outside Boundary Condition
  Surface 12,                             !- Outside Boundary Condition Object
  NoSun,                                  !- Sun Exposure
  NoWind,                                 !- Wind Exposure
  ,                                       !- View Factor to Ground
  ,                                       !- Number of Vertices
  -13.02373677625, 7.26576928277233, 3,   !- X,Y,Z Vertex 1 {m}
  -13.02373677625, 7.26576928277233, 0,   !- X,Y,Z Vertex 2 {m}
  -13.02373677625, 0.26576928277233, 0,   !- X,Y,Z Vertex 3 {m}
  -13.02373677625, 0.26576928277233, 3;   !- X,Y,Z Vertex 4 {m}

BuildingSurface:Detailed,
  Surface 29,                             !- Name
  Wall,                                   !- Surface Type
  CTE_Ref_Muro Exterior_zona D,           !- Construction Name
  garaje,                                 !- Zone Name
  Outdoors,                               !- Outside Boundary Condition
  ,                                       !- Outside Boundary Condition Object
  SunExposed,                             !- Sun Exposure
  WindExposed,                            !- Wind Exposure
  ,                                       !- View Factor to Ground
  ,                                       !- Number of Vertices
  -9.02373677624998, 0.26576928277233, 3, !- X,Y,Z Vertex 1 {m}
  -9.02373677624998, 0.26576928277233, 0, !- X,Y,Z Vertex 2 {m}
  -9.02373677624998, 7.26576928277233, 0, !- X,Y,Z Vertex 3 {m}
  -9.02373677624998, 7.26576928277233, 3; !- X,Y,Z Vertex 4 {m}

BuildingSurface:Detailed,
  Surface 30,                             !- Name
  Floor,                                  !- Surface Type
  CTE_Ref_Suelo_zona D,                   !- Construction Name
  garaje,                                 !- Zone Name
  Ground,                                 !- Outside Boundary Condition
  ,                                       !- Outside Boundary Condition Object
  NoSun,                                  !- Sun Exposure
  NoWind,                                 !- Wind Exposure
  ,                                       !- View Factor to Ground
  ,                                       !- Number of Vertices
  -9.02373677624998, 7.26576928277233, 0, !- X,Y,Z Vertex 1 {m}
  -9.02373677624998, 0.26576928277233, 0, !- X,Y,Z Vertex 2 {m}
  -13.02373677625, 0.26576928277233, 0,   !- X,Y,Z Vertex 3 {m}
  -13.02373677625, 7.26576928277233, 0;   !- X,Y,Z Vertex 4 {m}

ZoneInfiltration:EffectiveLeakageArea,
  ela_garaje,                             !- Name
  garaje,                                 !- Zone Name
  CTER24B_HINF,                           !- Schedule Name
  218.978620534835,                       !- Effective Air Leakage Area {cm2}
  0.0003,                                 !- Stack Coefficient
  0.0003;                                 !- Wind Coefficient

Zone,
  vivienda,                               !- Name
  ,                                       !- Direction of Relative North {deg}
  9.27061249555456,                       !- X Origin {m}
  0.150704257982038,                      !- Y Origin {m}
  0,                                      !- Z Origin {m}
  ,                                       !- Type
  ,                                       !- Multiplier
  ,                                       !- Ceiling Height {m}
  ,                                       !- Volume {m3}
  ,                                       !- Floor Area {m2}
  ,                                       !- Zone Inside Convection Algorithm
  ;                                       !- Zone Outside Convection Algorithm

BuildingSurface:Detailed,
  Surface 10,                             !- Name
  Floor,                                  !- Surface Type
  CTE_Ref_Suelo_zona D,                   !- Construction Name
  vivienda,                               !- Zone Name
  Ground,                                 !- Outside Boundary Condition
  ,                                       !- Outside Boundary Condition Object
  NoSun,                                  !- Sun Exposure
  NoWind,                                 !- Wind Exposure
  ,                                       !- View Factor to Ground
  ,                                       !- Number of Vertices
  10.0282459603227, 6.95757852110334, 0,  !- X,Y,Z Vertex 1 {m}
  10.0282459603227, -0.0424214788966649, 0, !- X,Y,Z Vertex 2 {m}
  3.02824596032266, -0.0424214788966649, 0, !- X,Y,Z Vertex 3 {m}
  3.02824596032266, 6.95757852110334, 0;  !- X,Y,Z Vertex 4 {m}

BuildingSurface:Detailed,
  Surface 11,                             !- Name
  Wall,                                   !- Surface Type
  CTE_Ref_Muro Exterior_zona D,           !- Construction Name
  vivienda,                               !- Zone Name
  Outdoors,                               !- Outside Boundary Condition
  ,                                       !- Outside Boundary Condition Object
  SunExposed,                             !- Sun Exposure
  WindExposed,                            !- Wind Exposure
  ,                                       !- View Factor to Ground
  ,                                       !- Number of Vertices
  10.0282459603227, 6.95757852110334, 3,  !- X,Y,Z Vertex 1 {m}
  10.0282459603227, 6.95757852110334, 0,  !- X,Y,Z Vertex 2 {m}
  3.02824596032266, 6.95757852110334, 0,  !- X,Y,Z Vertex 3 {m}
  3.02824596032266, 6.95757852110334, 3;  !- X,Y,Z Vertex 4 {m}

BuildingSurface:Detailed,
  Surface 12,                             !- Name
  Wall,                                   !- Surface Type
  CTE_Ref_Partición interior,            !- Construction Name
  vivienda,                               !- Zone Name
  Surface,                                !- Outside Boundary Condition
  Surface 28,                             !- Outside Boundary Condition Object
  NoSun,                                  !- Sun Exposure
  NoWind,                                 !- Wind Exposure
  ,                                       !- View Factor to Ground
  ,                                       !- Number of Vertices
  10.0282459603227, -0.0424214788966649, 3, !- X,Y,Z Vertex 1 {m}
  10.0282459603227, -0.0424214788966649, 0, !- X,Y,Z Vertex 2 {m}
  10.0282459603227, 6.95757852110334, 0,  !- X,Y,Z Vertex 3 {m}
  10.0282459603227, 6.95757852110334, 3;  !- X,Y,Z Vertex 4 {m}

BuildingSurface:Detailed,
  Surface 7,                              !- Name
  Wall,                                   !- Surface Type
  CTE_Ref_Muro Exterior_zona D,           !- Construction Name
  vivienda,                               !- Zone Name
  Outdoors,                               !- Outside Boundary Condition
  ,                                       !- Outside Boundary Condition Object
  SunExposed,                             !- Sun Exposure
  WindExposed,                            !- Wind Exposure
  ,                                       !- View Factor to Ground
  ,                                       !- Number of Vertices
  3.02824596032266, -0.0424214788966649, 3, !- X,Y,Z Vertex 1 {m}
  3.02824596032266, -0.0424214788966649, 0, !- X,Y,Z Vertex 2 {m}
  10.0282459603227, -0.0424214788966649, 0, !- X,Y,Z Vertex 3 {m}
  10.0282459603227, -0.0424214788966649, 3; !- X,Y,Z Vertex 4 {m}

FenestrationSurface:Detailed,
  Sub Surface 4,                          !- Name
  Window,                                 !- Surface Type
  CTE_Ref_Huecos_zona D,                  !- Construction Name
  Surface 7,                              !- Building Surface Name
  ,                                       !- Outside Boundary Condition Object
  ,                                       !- View Factor to Ground
  sombra estacional_verano,               !- Shading Control Name
  CTE_Ref_marco_zona D,                   !- Frame and Divider Name
  ,                                       !- Multiplier
  ,                                       !- Number of Vertices
  4.02824596032266, -0.0424214788966649, 2.1, !- X,Y,Z Vertex 1 {m}
  4.02824596032266, -0.0424214788966649, 1.1, !- X,Y,Z Vertex 2 {m}
  7.52824596032266, -0.0424214788966649, 1.1, !- X,Y,Z Vertex 3 {m}
  7.52824596032266, -0.0424214788966649, 2.1; !- X,Y,Z Vertex 4 {m}

BuildingSurface:Detailed,
  Surface 8,                              !- Name
  Roof,                                   !- Surface Type
  CTE_Ref_Cubierta_zona D,                !- Construction Name
  vivienda,                               !- Zone Name
  Outdoors,                               !- Outside Boundary Condition
  ,                                       !- Outside Boundary Condition Object
  SunExposed,                             !- Sun Exposure
  WindExposed,                            !- Wind Exposure
  ,                                       !- View Factor to Ground
  ,                                       !- Number of Vertices
  10.0282459603227, -0.0424214788966649, 3, !- X,Y,Z Vertex 1 {m}
  10.0282459603227, 6.95757852110334, 3,  !- X,Y,Z Vertex 2 {m}
  3.02824596032266, 6.95757852110334, 3,  !- X,Y,Z Vertex 3 {m}
  3.02824596032266, -0.0424214788966649, 3; !- X,Y,Z Vertex 4 {m}

BuildingSurface:Detailed,
  Surface 9,                              !- Name
  Wall,                                   !- Surface Type
  CTE_Ref_Muro Exterior_zona D,           !- Construction Name
  vivienda,                               !- Zone Name
  Adiabatic,                              !- Outside Boundary Condition
  ,                                       !- Outside Boundary Condition Object
  SunExposed,                             !- Sun Exposure
  WindExposed,                            !- Wind Exposure
  ,                                       !- View Factor to Ground
  ,                                       !- Number of Vertices
  3.02824596032266, 6.95757852110334, 3,  !- X,Y,Z Vertex 1 {m}
  3.02824596032266, 6.95757852110334, 0,  !- X,Y,Z Vertex 2 {m}
  3.02824596032266, -0.0424214788966649, 0, !- X,Y,Z Vertex 3 {m}
  3.02824596032266, -0.0424214788966649, 3; !- X,Y,Z Vertex 4 {m}

ZoneInfiltration:EffectiveLeakageArea,
  ela_vivienda,                           !- Name
  vivienda,                               !- Zone Name
  CTER24B_HINF,                           !- Schedule Name
  235.482060491964,                       !- Effective Air Leakage Area {cm2}
  0.0003,                                 !- Stack Coefficient
  0.0003;                                 !- Wind Coefficient

ZoneControl:Thermostat,
  vivienda Thermostat,                    !- Name
  vivienda,                               !- Zone or ZoneList Name
  vivienda Thermostat Schedule,           !- Control Type Schedule Name
  ThermostatSetpoint:DualSetpoint,        !- Control Object Type 1
  Thermostat Setpoint Dual Setpoint 2;    !- Control Name 1

Schedule:Compact,
  vivienda Thermostat Schedule,           !- Name
  vivienda Thermostat Schedule Type Limits, !- Schedule Type Limits Name
  Through: 12/31,                         !- Field 1
  For: AllDays,                           !- Field 2
  Until: 24:00,                           !- Field 3
  4;                                      !- Field 4

ScheduleTypeLimits,
  vivienda Thermostat Schedule Type Limits, !- Name
  0,                                      !- Lower Limit Value {BasedOnField A3}
  4,                                      !- Upper Limit Value {BasedOnField A3}
  DISCRETE;                               !- Numeric Type

ThermostatSetpoint:DualSetpoint,
  Thermostat Setpoint Dual Setpoint 2,    !- Name
  CTER24B_TCAL,                           !- Heating Setpoint Temperature Schedule Name
  CTER24B_TREF;                           !- Cooling Setpoint Temperature Schedule Name

ScheduleTypeLimits,
  Temperature,                            !- Name
  ,                                       !- Lower Limit Value {BasedOnField A3}
  ,                                       !- Upper Limit Value {BasedOnField A3}
  Continuous,                             !- Numeric Type
  temperature;                            !- Unit Type

Schedule:Day:Interval,
  Schedule Day 13,                        !- Name
  Temperature,                            !- Schedule Type Limits Name
  No,                                     !- Interpolate to Timestep
  07:00,                                  !- Time 1 {hh:mm}
  17,                                     !- Value Until Time 1
  23:00,                                  !- Time 2 {hh:mm}
  20,                                     !- Value Until Time 2
  24:00,                                  !- Time 3 {hh:mm}
  17;                                     !- Value Until Time 3

Schedule:Week:Daily,
  Schedule:Week:Daily {d0c409cb-689f-4d66-b797-52f5908f6ddf}, !- Name
  Schedule Day 10,                        !- Sunday Schedule:Day Name