
OS:Version,
  {c3165d85-a153-49a9-896b-8f279c0614a9}, !- Handle
  3.7.0;                                  !- Version Identifier

OS:Site,
  {8927501b-94ac-4ebb-ba6f-0700120c6057}, !- Handle
  D3_peninsula,                           !- Name
  40.68,                                  !- Latitude {deg}
  -4.13,                                  !- Longitude {deg}
  1,                                      !- Time Zone {hr}
  667,                                    !- Elevation {m}
  City;                                   !- Terrain

OS:SimulationControl,
  {1f10c4ef-b224-4092-92e5-ed6e81b0cf79}, !- Handle
  No,                                     !- Do Zone Sizing Calculation
  No,                                     !- Do System Sizing Calculation
  No,                                     !- Do Plant Sizing Calculation
  No,                                     !- Run Simulation for Sizing Periods
  Yes,                                    !- Run Simulation for Weather File Run Periods
  0.04,                                   !- Loads Convergence Tolerance Value {W}
  0.4,                                    !- Temperature Convergence Tolerance Value {deltaC}
  FullExterior,                           !- Solar Distribution
  25;                                     !- Maximum Number of Warmup Days

OS:Output:Variable,
  {f9f6b26d-f039-4c5e-b794-9eec486a4b17}, !- Handle
  {0c80f96d-eb05-4afa-b733-90f969db6b2a}, !- Name
  *,                                      !- Key Value
  Zone Thermostat Heating Setpoint Temperature, !- Variable Name
  Hourly;                                 !- Reporting Frequency

OS:Building,
  {1ea2e9a4-0714-4cd3-b7cb-09a16a2a969d}, !- Handle
  CTE_PLURIF_BLOQUE_4_ALTURAS,            !- Name
  ,                                       !- Building Sector Type
  0,                                      !- North Axis {deg}
  ,                                       !- Nominal Floor to Floor Height {m}
  {56ef3489-666b-4906-9f70-990d34e20ff6}, !- Space Type Name
  {9abc41f3-b5c6-480a-a634-6425c567a398}, !- Default Construction Set Name
  {6bc68b02-d871-4b66-b7ab-7581352fa8a0}, !- Default Schedule Set Name
  6,                                      !- Standards Number of Stories
  4,                                      !- Standards Number of Above Ground Stories
  ,                                       !- Standards Template
  ,                                       !- Standards Building Type
  ,                                       !- Standards Number of Living Units
  ,                                       !- Relocatable
  2.5;                                    !- Nominal Floor to Ceiling Height {m}

OS:ShadowCalculation,
  {61ce9f15-42d1-4aa7-a9df-7e75d3cda8fa}, !- Handle
  PolygonClipping,                        !- Shading Calculation Method
  ,                                       !- Shading Calculation Update Frequency Method
  7,                                      !- Shading Calculation Update Frequency
  15000,                                  !- Maximum Figures in Shadow Overlap Calculations
  ,                                       !- Polygon Clipping Algorithm
  512,                                    !- Pixel Counting Resolution
  ,                                       !- Sky Diffuse Modeling Algorithm
  No,                                     !- Output External Shading Calculation Results
  No,                                     !- Disable Self-Shading Within Shading Zone Groups
  No;                                     !- Disable Self-Shading From Shading Zone Groups to Other Zones

OS:Output:Variable,
  {8e67702b-9c83-447c-81fd-d35382ac47c9}, !- Handle
  {badbf676-8f21-4655-9f20-873a6ac2f151}, !- Name
  *,                                      !- Key Value
  Zone Ideal Loads Zone Sensible Cooling Rate, !- Variable Name
  hourly;                                 !- Reporting Frequency

OS:Output:Variable,
  {40eb5c3d-968b-4217-b9b1-a211815facd2}, !- Handle
  {ac72ef7f-827e-47a0-a8b9-311c6260951f}, !- Name
  *,                                      !- Key Value
  Zone Ventilation Air Change Rate,       !- Variable Name
  Hourly;                                 !- Reporting Frequency

OS:Output:Variable,
  {609b324a-f21f-4e34-b707-18a584fb13f5}, !- Handle
  {cfe90681-276d-4b07-a196-2324af9c50ee}, !- Name
  *,                                      !- Key Value
  Zone Ideal Loads Zone Total Cooling Energy, !- Variable Name
  Hourly;                                 !- Reporting Frequency

OS:Output:Variable,
  {f553f067-980a-4e12-9402-1428b62be0db}, !- Handle
  {12a5202f-a5e5-4dec-b2a7-09e6eb257d10}, !- Name
  *,                                      !- Key Value
  Zone Ideal Loads Zone Total Heating Energy, !- Variable Name
  Hourly;                                 !- Reporting Frequency

OS:Output:Variable,
  {85c90fba-39d4-4f14-b223-c3ee38395538}, !- Handle
  {381f0cea-81a4-484e-aa21-e863db18c555}, !- Name
  *,                                      !- Key Value
  Zone Operative Temperature,             !- Variable Name
  hourly;                                 !- Reporting Frequency

OS:HeatBalanceAlgorithm,
  {5afacf34-940b-41b7-b6b7-7554d6420a55}, !- Handle
  ConductionTransferFunction,             !- Algorithm
  200;                                    !- Surface Temperature Upper Limit {C}

OS:ConvergenceLimits,
  {3c619ede-4dda-4a6f-8337-218d56e355f7}, !- Handle
  1;                                      !- Minimum System Timestep {minutes}

OS:Output:Variable,
  {ccbb734b-6013-4a23-9773-38123fde0ab0}, !- Handle
  {c585ab9f-bc0a-4958-a1b8-cc43a3366710}, !- Name
  *,                                      !- Key Value
  Zone Ideal Loads Zone Sensible Heating Rate, !- Variable Name
  hourly;                                 !- Reporting Frequency

OS:Output:Variable,
  {dfa7d344-19cf-47dd-aee9-f383d2dc201b}, !- Handle
  {5617cddf-3bbb-4302-a556-2acd267e3b63}, !- Name
  *,                                      !- Key Value
  Zone Infiltration Air Change Rate,      !- Variable Name
  Hourly;                                 !- Reporting Frequency

OS:Timestep,
  {9cb96fcf-123e-495d-8fa6-b7286ea708b1}, !- Handle
  1;                                      !- Number of Timesteps per Hour

OS:Output:Variable,
  {9f697885-7ddb-4f7f-a8f9-bcfeeba3700c}, !- Handle
  {819bf9b3-27de-4ad2-8be0-1ad6b428795d}, !- Name
  *,                                      !- Key Value
  Zone Mean Air Temperature,              !- Variable Name
  hourly;                                 !- Reporting Frequency

OS:Output:Variable,
  {9d4ca8f6-b023-4988-9524-dcb97a8bf721}, !- Handle
  {f7b1f8a4-4325-4c70-b81d-3a94dc3b2640}, !- Name
  *,                                      !- Key Value
  Zone Thermostat Cooling Setpoint Temperature, !- Variable Name
  Hourly;                                 !- Reporting Frequency

OS:Output:Variable,
  {6d0f16a3-5290-49be-8096-70fcec4ebb18}, !- Handle
  {6fe92dad-414e-468a-a5aa-a9cac24a3c04}, !- Name
  *,                                      !- Key Value
  Zone Ideal Loads Zone Latent Heating Rate, !- Variable Name
  hourly;                                 !- Reporting Frequency

OS:Output:Variable,
  {0ad5cf6f-661c-4f3d-a1ad-a42f586c647f}, !- Handle
  {607b0378-1b8d-4c81-8fca-65ead2d95ff1}, !- Name
  *,                                      !- Key Value
  Zone Electric Equipment Total Heating Rate, !- Variable Name
  Hourly,                                 !- Reporting Frequency
  ;                                       !- Schedule Name

OS:Output:Variable,
  {a51dedb9-cc23-40a2-89ae-f36d3be27bbe}, !- Handle
  {5e2c5451-5e03-451c-983b-bd407f5ab449}, !- Name
  *,                                      !- Key Value
  Zone Electric Equipment Electricity Energy, !- Variable Name
  Hourly;                                 !- Reporting Frequency

OS:Output:Variable,
  {e43a747d-2aac-44f6-b004-18c591648a28}, !- Handle
  {22bde878-d6cf-446c-b4dc-e013e392ae7f}, !- Name
  *,                                      !- Key Value
  Zone People Total Heating Rate,         !- Variable Name
  Hourly;                                 !- Reporting Frequency

OS:Output:Variable,
  {7db53c97-37f8-43b2-81a3-df4b3d16f1c8}, !- Handle
  {477b391b-f1ab-46a2-af44-5f1932ffbf01}, !- Name
  *,                                      !- Key Value
  Site Outdoor Air Drybulb Temperature,   !- Variable Name
  RunPeriod;                              !- Reporting Frequency

OS:Output:Variable,
  {196d4602-3d18-4511-887d-8e7b703ed6cf}, !- Handle
  {197e005c-bcf3-424c-8ea4-6805d1c56241}, !- Name
  *,                                      !- Key Value
  Zone Air Heat Balance System Air Transfer Rate, !- Variable Name
  RunPeriod;                              !- Reporting Frequency

OS:Output:Variable,
  {dc71b124-bfc2-45d3-ba8e-041c20422e63}, !- Handle
  {2f14e5c7-84c6-4865-89c3-38af68abc0d9}, !- Name
  *,                                      !- Key Value
  Zone Ideal Loads Zone Latent Cooling Rate, !- Variable Name
  hourly;                                 !- Reporting Frequency

OS:Output:Variable,
  {3d538fc7-63f6-4bac-a17a-c65b249f1183}, !- Handle
  {77d85380-223e-4b1e-98c8-d5cf0195e8e0}, !- Name
  *,                                      !- Key Value
  Zone People Occupant Count,             !- Variable Name
  Hourly;                                 !- Reporting Frequency

OS:Output:Variable,
  {137c77c1-c68c-45cb-9387-2ffdb0772691}, !- Handle
  {a68d64e7-252b-4184-9e6a-915611f0567c}, !- Name
  *,                                      !- Key Value
  Zone Lights Total Heating Rate,         !- Variable Name
  Hourly;                                 !- Reporting Frequency

OS:Output:Variable,
  {da974b6a-1ad3-48f4-a1d1-5d2580451ca4}, !- Handle
  {df5c1528-f9a1-4d2c-bc26-dea40251e660}, !- Name
  *,                                      !- Key Value
  Zone Electric Equipment Total Heating Energy, !- Variable Name
  Hourly;                                 !- Reporting Frequency

OS:Output:Variable,
  {9d2b87e6-05cf-4cd2-aef0-260744cd4fd1}, !- Handle
  {06c1eb6f-5f58-4b52-a198-d87274097bd4}, !- Name
  *,                                      !- Key Value
  Zone Lights Electricity Energy,         !- Variable Name
  Hourly;                                 !- Reporting Frequency

OS:Output:Variable,
  {289ab821-5fc5-4a3d-bdb3-4efb90f93f54}, !- Handle
  {774b90bb-96fd-4415-b8ec-43cb6b8e1ce0}, !- Name
  *,                                      !- Key Value
  Zone Air Temperature,                   !- Variable Name
  Hourly;                                 !- Reporting Frequency

OS:RunPeriod,
  {ea3e53a0-9c01-4abb-b7de-f33c0f5ea9cb}, !- Handle
  anual,                                  !- Name
  1,                                      !- Begin Month
  1,                                      !- Begin Day of Month
  12,                                     !- End Month
  31,                                     !- End Day of Month
  No,                                     !- Use Weather File Holidays and Special Days
  No,                                     !- Use Weather File Daylight Saving Period
  Yes,                                    !- Apply Weekend Holiday Rule
  Yes,                                    !- Use Weather File Rain Indicators
  Yes,                                    !- Use Weather File Snow Indicators
  1;                                      !- Number of Times Runperiod to be Repeated

OS:YearDescription,
  {650fc405-488f-4269-b173-ebb71bc29c61}, !- Handle
  2007,                                   !- Calendar Year
  ,                                       !- Day of Week for Start Day
  ;                                       !- Is Leap Year

OS:Facility,
  {d7240b13-4ebf-4472-9046-b2769a5f59af}; !- Handle

OS:Rendering:Color,
  {0fe86429-7f32-4e1e-a16f-07050b8b1a92}, !- Handle
  Rendering Color 1,                      !- Name
  199,                                    !- Rendering Red Value
  21,                                     !- Rendering Green Value
  133,                                    !- Rendering Blue Value
  ;                                       !- Rendering Alpha Value

OS:Rendering:Color,
  {2511a633-e707-4acf-91be-e92d8a38b5e7}, !- Handle
  Rendering Color 2,                      !- Name
  47,                                     !- Rendering Red Value
  79,                                     !- Rendering Green Value
  79;                                     !- Rendering Blue Value

OS:Rendering:Color,
  {9cd753ea-2c3c-4741-991b-ba294380e97e}, !- Handle
  Rendering Color 3,                      !- Name
  138,                                    !- Rendering Red Value
  43,                                     !- Rendering Green Value
  226;                                    !- Rendering Blue Value

OS:Rendering:Color,
  {740d450e-0fb5-4baa-a1e4-0ca0e22feddf}, !- Handle
  Rendering Color 4,                      !- Name
  0,                                      !- Rendering Red Value
  0,                                      !- Rendering Green Value
  205;                                    !- Rendering Blue Value

OS:Rendering:Color,
  {7b1e9e4e-786a-47d3-91e8-d09ce41d5591}, !- Handle
  Rendering Color 5,                      !- Name
  245,                                    !- Rendering Red Value
  245,                                    !- Rendering Green Value
  220;                                    !- Rendering Blue Value

OS:Rendering:Color,
  {e3f489d1-e19f-4972-8b96-ec2137ba0a18}, !- Handle
  Rendering Color 6,                      !- Name
  220,                                    !- Rendering Red Value
  220,                                    !- Rendering Green Value
  220;                                    !- Rendering Blue Value

OS:Rendering:Color,
  {45f3d929-7f27-474d-b8e7-a4b7eaeb7763}, !- Handle
  Rendering Color 7,                      !- Name
  0,                                      !- Rendering Red Value
  0,                                      !- Rendering Green Value
  205;                                    !- Rendering Blue Value

OS:Rendering:Color,
  {9b20f4c6-8dc3-4f04-8783-a8c37faaf4db}, !- Handle
  Rendering Color 8,                      !- Name
  210,                                    !- Rendering Red Value
  180,                                    !- Rendering Green Value
  140;                                    !- Rendering Blue Value

OS:Rendering:Color,
  {129da498-80aa-4960-ae3d-7a46b8d5eb15}, !- Handle
  Rendering Color 9,                      !- Name
  173,                                    !- Rendering Red Value
  216,                                    !- Rendering Green Value
  230;                                    !- Rendering Blue Value

OS:Rendering:Color,
  {9ce0a3ba-3520-4d3a-83a0-3a91cb70d0a0}, !- Handle
  Rendering Color 10,                     !- Name
  0,                                      !- Rendering Red Value
  206,                                    !- Rendering Green Value
  209;                                    !- Rendering Blue Value

OS:Rendering:Color,
  {cfed8588-4ccc-42be-9c96-e18ba1156772}, !- Handle
  Rendering Color 11,                     !- Name
  34,                                     !- Rendering Red Value
  139,                                    !- Rendering Green Value
  34;                                     !- Rendering Blue Value

OS:ClimateZones,
  {1b585337-7a27-4bfd-8a07-f8babcc87798}, !- Handle
  ASHRAE,                                 !- Climate Zone Institution Name 1
  ANSI/ASHRAE Standard 169,               !- Climate Zone Document Name 1
  2006,                                   !- Climate Zone Document Year 1
  ,                                       !- Climate Zone Value 1
  CEC,                                    !- Climate Zone Institution Name 2
  California Climate Zone Descriptions,   !- Climate Zone Document Name 2
  1995,                                   !- Climate Zone Document Year 2
  ;                                       !- Climate Zone Value 2

OS:LifeCycleCost:Parameters,
  {cdf15cd1-dc5d-41e1-8d02-e6db77c47498}, !- Handle
  FEMP,                                   !- Analysis Type
  ,                                       !- Discounting Convention
  ,                                       !- Inflation Approach
  ,                                       !- Real Discount Rate
  ,                                       !- Nominal Discount Rate
  ,                                       !- Inflation
  ,                                       !- Base Date Month
  ,                                       !- Base Date Year
  ,                                       !- Service Date Month
  ,                                       !- Service Date Year
  ,                                       !- Length of Study Period in Years
  ,                                       !- Tax Rate
  ,                                       !- Depreciation Method
  Yes;                                    !- Use NIST Fuel Escalation Rates

OS:ScheduleTypeLimits,
  {9357af02-3b08-4e12-8be9-2e56fbbce515}, !- Handle
  Dimensionless,                          !- Name
  ,                                       !- Lower Limit Value
  ,                                       !- Upper Limit Value
  Continuous;                             !- Numeric Type

OS:ScheduleTypeLimits,
  {3f34b003-3937-4fda-a10b-cd38d9ab83ff}, !- Handle
  Fractional,                             !- Name
  0,                                      !- Lower Limit Value
  1,                                      !- Upper Limit Value
  Continuous;                             !- Numeric Type

OS:ScheduleTypeLimits,
  {4268bd92-36a9-4993-b7a5-cf7f788eb879}, !- Handle
  ActivityLevel,                          !- Name
  0,                                      !- Lower Limit Value
  ,                                       !- Upper Limit Value
  Continuous,                             !- Numeric Type
  ActivityLevel;                          !- Unit Type

OS:ScheduleTypeLimits,
  {2e230eb6-5a39-47b6-8601-2a9a9ec5ddaa}, !- Handle
  OnOff,                                  !- Name
  0,                                      !- Lower Limit Value
  1,                                      !- Upper Limit Value
  Discrete,                               !- Numeric Type
  Availability;                           !- Unit Type

OS:ScheduleTypeLimits,
  {f9c77072-ef86-420b-a013-f462c7e152b5}, !- Handle
  Capacity,                               !- Name
  0,                                      !- Lower Limit Value
  ,                                       !- Upper Limit Value
  Continuous,                             !- Numeric Type
  Capacity;                               !- Unit Type

OS:ScheduleTypeLimits,
  {7348a0ca-01bd-4035-8a4a-35073c3ef5ca}, !- Handle
  ClothingInsulation,                     !- Name
  0,                                      !- Lower Limit Value
  ,                                       !- Upper Limit Value
  Continuous,                             !- Numeric Type
  ClothingInsulation;                     !- Unit Type

OS:ScheduleTypeLimits,
  {739f7f3f-67f4-474a-989e-0a5c6dd2009f}, !- Handle
  ControlMode,                            !- Name
  0,                                      !- Lower Limit Value
  1,                                      !- Upper Limit Value
  Discrete,                               !- Numeric Type
  ControlMode;                            !- Unit Type

OS:ScheduleTypeLimits,
  {2d3a3001-8a97-4645-8323-4775f7af0fd6}, !- Handle
  DeltaTemperature,                       !- Name
  ,                                       !- Lower Limit Value
  ,                                       !- Upper Limit Value
  Continuous,                             !- Numeric Type
  DeltaTemperature;                       !- Unit Type

OS:ScheduleTypeLimits,
  {0b90d899-97c8-47ed-aaf3-45804d70735f}, !- Handle
  Dimensionless 1,                        !- Name
  0,                                      !- Lower Limit Value
  1,                                      !- Upper Limit Value
  Continuous,                             !- Numeric Type
  Dimensionless;                          !- Unit Type

OS:ScheduleTypeLimits,
  {62f0dfa4-4f27-4d9e-8936-0663f56ae945}, !- Handle
  LinearPowerDensity,                     !- Name
  0,                                      !- Lower Limit Value
  ,                                       !- Upper Limit Value
  Continuous,                             !- Numeric Type
  LinearPowerDensity;                     !- Unit Type

OS:ScheduleTypeLimits,
  {c2b540f8-9e8a-4b53-99e4-8b69c78ce6ac}, !- Handle
  MassFlowRate,                           !- Name
  ,                                       !- Lower Limit Value
  ,                                       !- Upper Limit Value
  Continuous,                             !- Numeric Type
  MassFlowRate;                           !- Unit Type

OS:ScheduleTypeLimits,
  {df6d3324-5bac-43cc-96e6-d93ecc371610}, !- Handle
  Percent,                                !- Name
  0,                                      !- Lower Limit Value
  100,                                    !- Upper Limit Value
  Continuous,                             !- Numeric Type
  Percent;                                !- Unit Type

OS:ScheduleTypeLimits,
  {9cdd3249-b44b-421c-afd6-1c6df198a16e}, !- Handle
  Pressure,                               !- Name
  ,                                       !- Lower Limit Value
  ,                                       !- Upper Limit Value
  Continuous,                             !- Numeric Type
  Pressure;                               !- Unit Type

OS:ScheduleTypeLimits,
  {3e8cde08-facf-4162-8482-d1de80427772}, !- Handle
  RotationsPerMinute,                     !- Name
  ,                                       !- Lower Limit Value
  ,                                       !- Upper Limit Value
  Continuous,                             !- Numeric Type
  RotationsPerMinute;                     !- Unit Type

OS:ScheduleTypeLimits,
  {ae0a9df5-cb98-4c78-bce5-3089e79621ec}, !- Handle
  Temperature,                            !- Name
  ,                                       !- Lower Limit Value
  ,                                       !- Upper Limit Value
  Continuous,                             !- Numeric Type
  Temperature;                            !- Unit Type

OS:ScheduleTypeLimits,
  {aba4a27e-1e72-42ec-8e81-9209424c8a2b}, !- Handle
  Velocity,                               !- Name
  0,                                      !- Lower Limit Value
  ,                                       !- Upper Limit Value
  Continuous,                             !- Numeric Type
  Velocity;                               !- Unit Type

OS:ScheduleTypeLimits,
  {8aa67699-ba6c-4f1a-89aa-0a13b8cbeb97}, !- Handle
  VolumetricFlowRate,                     !- Name
  0,                                      !- Lower Limit Value
  ,                                       !- Upper Limit Value
  Continuous,                             !- Numeric Type
  VolumetricFlowRate;                     !- Unit Type

OS:Schedule:Ruleset,
  {d484e542-568e-49e7-b159-a5efa1681eca}, !- Handle
  CTE_SiempreOff,                         !- Name
  {2e230eb6-5a39-47b6-8601-2a9a9ec5ddaa}, !- Schedule Type Limits Name
  {11e2cf40-29df-41be-8d35-0c810112a48e}; !- Default Day Schedule Name

OS:Schedule:Day,
  {11e2cf40-29df-41be-8d35-0c810112a48e}, !- Handle
  Schedule Day 8,                         !- Name
  {2e230eb6-5a39-47b6-8601-2a9a9ec5ddaa}, !- Schedule Type Limits Name
  ,                                       !- Interpolate to Timestep
  24,                                     !- Hour 1
  0,                                      !- Minute 1
  0;                                      !- Value Until Time 1

OS:Schedule:Ruleset,
  {443ec997-1dab-4351-92d5-c29cab4f58ca}, !- Handle
  CTE_SiempreOn,                          !- Name
  {2e230eb6-5a39-47b6-8601-2a9a9ec5ddaa}, !- Schedule Type Limits Name
  {aff37d59-4ebe-4a4e-8a2a-ca4f106eba05}; !- Default Day Schedule Name

OS:Schedule:Day,
  {aff37d59-4ebe-4a4e-8a2a-ca4f106eba05}, !- Handle
  Schedule Day 9,                         !- Name
  {2e230eb6-5a39-47b6-8601-2a9a9ec5ddaa}, !- Schedule Type Limits Name
  ,                                       !- Interpolate to Timestep
  24,                                     !- Hour 1
  0,                                      !- Minute 1
  1;                                      !- Value Until Time 1

OS:Schedule:Ruleset,
  {f39a3da6-eba3-4b04-85d4-de8842da5397}, !- Handle
  CTER24B_TCAL,                           !- Name
  {ae0a9df5-cb98-4c78-bce5-3089e79621ec}, !- Schedule Type Limits Name
  {4d4da4b0-34ad-4ca7-9585-f25a981e8f8b}; !- Default Day Schedule Name

OS:Schedule:Day,
  {4d4da4b0-34ad-4ca7-9585-f25a981e8f8b}, !- Handle
  Schedule Day 10,                        !- Name
  {ae0a9df5-cb98-4c78-bce5-3089e79621ec}, !- Schedule Type Limits Name
  ,                                       !- Interpolate to Timestep
  24,                                     !- Hour 1
  0,                                      !- Minute 1
  23.5;                                   !- Value Until Time 1

OS:Schedule:Rule,
  {09f63442-70bb-4328-b440-64dc35fabfc7}, !- Handle
  Schedule Rule 3,                        !- Name
  {f39a3da6-eba3-4b04-85d4-de8842da5397}, !- Schedule Ruleset Name
  2,                                      !- Rule Order
  {867503b8-e520-4c6c-bc58-4e9840a28384}, !- Day Schedule Name
  Yes,                                    !- Apply Sunday
  Yes,                                    !- Apply Monday
  Yes,                                    !- Apply Tuesday
  Yes,                                    !- Apply Wednesday
  Yes,                                    !- Apply Thursday
  Yes,                                    !- Apply Friday
  Yes,                                    !- Apply Saturday
  DateRange,                              !- Date Specification Type
  10,                                     !- Start Month
  1,                                      !- Start Day
  12,                                     !- End Month
  31;                                     !- End Day

OS:Schedule:Day,
  {867503b8-e520-4c6c-bc58-4e9840a28384}, !- Handle
  Schedule Day 11,                        !- Name
  {ae0a9df5-cb98-4c78-bce5-3089e79621ec}, !- Schedule Type Limits Name
  ,                                       !- Interpolate to Timestep
  7,                                      !- Hour 1
  0,                                      !- Minute 1
  17,                                     !- Value Until Time 1
  23,                                     !- Hour 2
  0,                                      !- Minute 2
  20,                                     !- Value Until Time 2
  24,                                     !- Hour 3
  0,                                      !- Minute 3
  17;                                     !- Value Until Time 3

OS:Schedule:Rule,
  {072f9a15-b0dd-4241-8d01-5ef8314cbf74}, !- Handle
  Schedule Rule 5,                        !- Name
  {f39a3da6-eba3-4b04-85d4-de8842da5397}, !- Schedule Ruleset Name
  1,                                      !- Rule Order
  {e7cdaa97-7371-4955-8d17-59b8153ca85e}, !- Day Schedule Name
  Yes,                                    !- Apply Sunday
  Yes,                                    !- Apply Monday
  Yes,                                    !- Apply Tuesday
  Yes,                                    !- Apply Wednesday
  Yes,                                    !- Apply Thursday
  Yes,                                    !- Apply Friday
  Yes,                                    !- Apply Saturday
  DateRange,                              !- Date Specification Type
  6,                                      !- Start Month
  1,                                      !- Start Day
  9,                                      !- End Month
  30;                                     !- End Day

OS:Schedule:Day,
  {e7cdaa97-7371-4955-8d17-59b8153ca85e}, !- Handle
  Schedule Day 12,                        !- Name
  {ae0a9df5-cb98-4c78-bce5-3089e79621ec}, !- Schedule Type Limits Name
  ,                                       !- Interpolate to Timestep
  24,                                     !- Hour 1
  0,                                      !- Minute 1
  -50;                                    !- Value Until Time 1

OS:Schedule:Rule,
  {d555210d-9d13-421c-bb72-17e33bcd5834}, !- Handle
  Schedule Rule 6,                        !- Name
  {f39a3da6-eba3-4b04-85d4-de8842da5397}, !- Schedule Ruleset Name
  0,                                      !- Rule Order
  {c3c081e2-bbeb-4d1c-b26f-ade08c5d178e}, !- Day Schedule Name
  Yes,                                    !- Apply Sunday
  Yes,                                    !- Apply Monday
  Yes,                                    !- Apply Tuesday
  Yes,                                    !- Apply Wednesday
  Yes,                                    !- Apply Thursday
  Yes,                                    !- Apply Friday
  Yes,                                    !- Apply Saturday
  DateRange,                              !- Date Specification Type
  1,                                      !- Start Month
  1,                                      !- Start Day
  5,                                      !- End Month
  31;                                     !- End Day

OS:Schedule:Day,
  {c3c081e2-bbeb-4d1c-b26f-ade08c5d178e}, !- Handle
  Schedule Day 13,                        !- Name
  {ae0a9df5-cb98-4c78-bce5-3089e79621ec}, !- Schedule Type Limits Name
  ,                                       !- Interpolate to Timestep
  7,                                      !- Hour 1
  0,                                      !- Minute 1
  17,                                     !- Value Until Time 1
  23,                                     !- Hour 2
  0,                                      !- Minute 2
  20,                                     !- Value Until Time 2
  24,                                     !- Hour 3